131633436
  -OEChem-12112312342D

 19  9  0     0  0  0  0  0  0999 V2000
    2.2690    4.3100    0.0000 Cl  0  5  0  0  0  0  0  0  0  0  0  0
    1.4030    3.8100    0.0000 Al  0  1  0  0  0  0  0  0  0  0  0  0
    5.6720    1.3100    0.0000 Al  0  1  0  0  0  0  0  0  0  0  0  0
    5.6720    3.8100    0.0000 O   0  0  0  0  0  0  0  0  0  0  0  0
    5.6720    6.3100    0.0000 O   0  0  0  0  0  0  0  0  0  0  0  0
    0.5369    4.3100    0.0000 O   0  5  0  0  0  0  0  0  0  0  0  0
    1.4030    2.8100    0.0000 O   0  5  0  0  0  0  0  0  0  0  0  0
    6.5380    1.8100    0.0000 O   0  5  0  0  0  0  0  0  0  0  0  0
    4.8059    1.8100    0.0000 O   0  5  0  0  0  0  0  0  0  0  0  0
    5.6720    0.3100    0.0000 O   0  5  0  0  0  0  0  0  0  0  0  0
    6.2089    4.1200    0.0000 H   0  0  0  0  0  0  0  0  0  0  0  0
    5.1350    4.1200    0.0000 H   0  0  0  0  0  0  0  0  0  0  0  0
    6.2089    6.6200    0.0000 H   0  0  0  0  0  0  0  0  0  0  0  0
    5.1350    6.6200    0.0000 H   0  0  0  0  0  0  0  0  0  0  0  0
    0.0000    4.0000    0.0000 H   0  0  0  0  0  0  0  0  0  0  0  0
    1.9399    2.5000    0.0000 H   0  0  0  0  0  0  0  0  0  0  0  0
    7.0749    1.5000    0.0000 H   0  0  0  0  0  0  0  0  0  0  0  0
    4.2690    1.5000    0.0000 H   0  0  0  0  0  0  0  0  0  0  0  0
    5.1350    0.0000    0.0000 H   0  0  0  0  0  0  0  0  0  0  0  0
  4 11  1  0  0  0  0
  4 12  1  0  0  0  0
  5 13  1  0  0  0  0
  5 14  1  0  0  0  0
  6 15  1  0  0  0  0
  7 16  1  0  0  0  0
  8 17  1  0  0  0  0
  9 18  1  0  0  0  0
 10 19  1  0  0  0  0
M  CHG  8   1  -1   2   3   3   3   6  -1   7  -1   8  -1   9  -1  10  -1
M  END
> <PUBCHEM_COMPOUND_CID>
131633436

> <PUBCHEM_COMPOUND_CANONICALIZED>
1

> <PUBCHEM_CACTVS_COMPLEXITY>
0

> <PUBCHEM_CACTVS_HBOND_ACCEPTOR>
8

> <PUBCHEM_CACTVS_HBOND_DONOR>
7

> <PUBCHEM_CACTVS_ROTATABLE_BOND>
0

> <PUBCHEM_CACTVS_SUBSKEYS>
AAADccAAOAAEABAAAAAAAAAAAAAAAAAAAAAAAAAAAAAAAAAAAAAAAAAACAAAAAAAAAAAAAAAAAAAAAAAAAAAAAAAAAAAAAAAAAAAAAAAAAAAAAAAAAAAAAAAAAAAAAAAAAAAAAAAAAAAAAAAAAAAAAAAAA==

> <PUBCHEM_IUPAC_OPENEYE_NAME>
dialuminum;chloride;pentahydroxide;dihydrate

> <PUBCHEM_IUPAC_CAS_NAME>
dialuminum;chloride;pentahydroxide;dihydrate

> <PUBCHEM_IUPAC_NAME_MARKUP>
dialuminum;chloride;pentahydroxide;dihydrate

> <PUBCHEM_IUPAC_NAME>
dialuminum;chloride;pentahydroxide;dihydrate

> <PUBCHEM_IUPAC_SYSTEMATIC_NAME>
dialuminum;chloride;pentahydroxide;dihydrate

> <PUBCHEM_IUPAC_TRADITIONAL_NAME>
dialuminum;chloride;pentahydroxide;dihydrate

> <PUBCHEM_IUPAC_INCHI>
InChI=1S/2Al.ClH.7H2O/h;;1H;7*1H2/q2*+3;;;;;;;;/p-6

> <PUBCHEM_IUPAC_INCHIKEY>
LVYZJEPLMYTTGH-UHFFFAOYSA-H

> <PUBCHEM_EXACT_MASS>
209.966757

> <PUBCHEM_MOLECULAR_FORMULA>
Al2ClH9O7

> <PUBCHEM_MOLECULAR_WEIGHT>
210.48

> <PUBCHEM_OPENEYE_CAN_SMILES>
O.O.[OH-].[OH-].[OH-].[OH-].[OH-].[Al+3].[Al+3].[Cl-]

> <PUBCHEM_OPENEYE_ISO_SMILES>
O.O.[OH-].[OH-].[OH-].[OH-].[OH-].[Al+3].[Al+3].[Cl-]

> <PUBCHEM_CACTVS_TPSA>
7

> <PUBCHEM_MONOISOTOPIC_WEIGHT>
209.966757

> <PUBCHEM_TOTAL_CHARGE>
0

> <PUBCHEM_HEAVY_ATOM_COUNT>
10

> <PUBCHEM_ATOM_DEF_STEREO_COUNT>
0

> <PUBCHEM_ATOM_UDEF_STEREO_COUNT>
0

> <PUBCHEM_BOND_DEF_STEREO_COUNT>
0

> <PUBCHEM_BOND_UDEF_STEREO_COUNT>
0

> <PUBCHEM_ISOTOPIC_ATOM_COUNT>
0

> <PUBCHEM_COMPONENT_COUNT>
10

> <PUBCHEM_CACTVS_TAUTO_COUNT>
-1

> <PUBCHEM_COORDINATE_TYPE>
1
5
255

$$$$
