23053647
  -OEChem-12112312352D

  7  3  0     0  0  0  0  0  0999 V2000
    2.2690    0.5000    0.0000 Cl  0  5  0  0  0  0  0  0  0  0  0  0
    1.4030    0.0000    0.0000 Al  0  1  0  0  0  0  0  0  0  0  0  0
    1.1345    2.5000    0.0000 O   0  0  0  0  0  0  0  0  0  0  0  0
    0.5369    0.5000    0.0000 O   0  5  0  0  0  0  0  0  0  0  0  0
    1.6714    2.8100    0.0000 H   0  0  0  0  0  0  0  0  0  0  0  0
    0.5976    2.8100    0.0000 H   0  0  0  0  0  0  0  0  0  0  0  0
    0.0000    0.1900    0.0000 H   0  0  0  0  0  0  0  0  0  0  0  0
  3  5  1  0  0  0  0
  3  6  1  0  0  0  0
  4  7  1  0  0  0  0
M  CHG  3   1  -1   2   3   4  -1
M  END
> <PUBCHEM_COMPOUND_CID>
23053647

> <PUBCHEM_COMPOUND_CANONICALIZED>
1

> <PUBCHEM_CACTVS_COMPLEXITY>
0

> <PUBCHEM_CACTVS_HBOND_ACCEPTOR>
3

> <PUBCHEM_CACTVS_HBOND_DONOR>
2

> <PUBCHEM_CACTVS_ROTATABLE_BOND>
0

> <PUBCHEM_CACTVS_SUBSKEYS>
AAADcQAAMAAEABAAAAAAAAAAAAAAAAAAAAAAAAAAAAAAAAAAAAAAAAAACAAAAAAAAAAAAAAAAAAAAAAAAAAAAAAAAAAAAAAAAAAAAAAAAAAAAAAAAAAAAAAAAAAAAAAAAAAAAAAAAAAAAAAAAAAAAAAAAA==

> <PUBCHEM_IUPAC_OPENEYE_NAME>
aluminum;chloride;hydroxide;hydrate

> <PUBCHEM_IUPAC_CAS_NAME>
aluminum;chloride;hydroxide;hydrate

> <PUBCHEM_IUPAC_NAME_MARKUP>
aluminum;chloride;hydroxide;hydrate

> <PUBCHEM_IUPAC_NAME>
aluminum;chloride;hydroxide;hydrate

> <PUBCHEM_IUPAC_SYSTEMATIC_NAME>
aluminum;chloride;hydroxide;hydrate

> <PUBCHEM_IUPAC_TRADITIONAL_NAME>
aluminum;chloride;hydroxide;hydrate

> <PUBCHEM_IUPAC_INCHI>
InChI=1S/Al.ClH.2H2O/h;1H;2*1H2/q+3;;;/p-2

> <PUBCHEM_IUPAC_INCHIKEY>
YCLAMANSVUJYPT-UHFFFAOYSA-L

> <PUBCHEM_EXACT_MASS>
96.9636954

> <PUBCHEM_MOLECULAR_FORMULA>
AlClH3O2+

> <PUBCHEM_MOLECULAR_WEIGHT>
97.46

> <PUBCHEM_OPENEYE_CAN_SMILES>
O.[OH-].[Al+3].[Cl-]

> <PUBCHEM_OPENEYE_ISO_SMILES>
O.[OH-].[Al+3].[Cl-]

> <PUBCHEM_CACTVS_TPSA>
2

> <PUBCHEM_MONOISOTOPIC_WEIGHT>
96.9636954

> <PUBCHEM_TOTAL_CHARGE>
1

> <PUBCHEM_HEAVY_ATOM_COUNT>
4

> <PUBCHEM_ATOM_DEF_STEREO_COUNT>
0

> <PUBCHEM_ATOM_UDEF_STEREO_COUNT>
0

> <PUBCHEM_BOND_DEF_STEREO_COUNT>
0

> <PUBCHEM_BOND_UDEF_STEREO_COUNT>
0

> <PUBCHEM_ISOTOPIC_ATOM_COUNT>
0

> <PUBCHEM_COMPONENT_COUNT>
4

> <PUBCHEM_CACTVS_TAUTO_COUNT>
1

> <PUBCHEM_COORDINATE_TYPE>
1
5
255

$$$$
