483926591
  -OEChem-12112312322D

 35 37  0     1  0  0  0  0  0999 V2000
   -2.0014   -6.1833    0.0000 C   0  0  0  0  0  0  0  0  0  0  0  0
   -2.0026   -7.0107    0.0000 C   0  0  0  0  0  0  0  0  0  0  0  0
   -1.2878   -7.4235    0.0000 C   0  0  0  0  0  0  0  0  0  0  0  0
   -1.2896   -5.7705    0.0000 C   0  0  0  0  0  0  0  0  0  0  0  0
   -0.5742   -6.1797    0.0000 C   0  0  0  0  0  0  0  0  0  0  0  0
   -0.5708   -7.0081    0.0000 C   0  0  0  0  0  0  0  0  0  0  0  0
    0.1444   -7.4172    0.0000 C   0  0  0  0  0  0  0  0  0  0  0  0
    0.8608   -7.0023    0.0000 C   0  0  3  0  0  0  0  0  0  0  0  0
    0.8574   -6.1738    0.0000 C   0  0  3  0  0  0  0  0  0  0  0  0
    0.1376   -5.7602    0.0000 O   0  0  0  0  0  0  0  0  0  0  0  0
    1.5764   -7.4128    0.0000 O   0  0  0  0  0  0  0  0  0  0  0  0
    1.5787   -8.2378    0.0000 C   0  0  0  0  0  0  0  0  0  0  0  0
    1.5706   -5.7591    0.0000 C   0  0  0  0  0  0  0  0  0  0  0  0
   -1.2872   -8.2485    0.0000 O   0  0  0  0  0  0  0  0  0  0  0  0
   -2.7160   -5.7710    0.0000 O   0  0  0  0  0  0  0  0  0  0  0  0
    2.2854   -6.1718    0.0000 C   0  0  0  0  0  0  0  0  0  0  0  0
    2.9981   -5.7578    0.0000 C   0  0  0  0  0  0  0  0  0  0  0  0
    2.9960   -4.9319    0.0000 C   0  0  0  0  0  0  0  0  0  0  0  0
    2.2752   -4.5218    0.0000 C   0  0  0  0  0  0  0  0  0  0  0  0
    1.5655   -4.9381    0.0000 C   0  0  0  0  0  0  0  0  0  0  0  0
    2.2697   -3.6968    0.0000 O   0  0  0  0  0  0  0  0  0  0  0  0
    3.7086   -4.5162    0.0000 O   0  0  0  0  0  0  0  0  0  0  0  0
    3.7136   -6.1684    0.0000 *   0  0  0  0  0  0  0  0  0  0  0  0
   10.7027   -5.5916    0.0000 C   0  0  0  0  0  0  0  0  0  0  0  0
   10.7016   -6.4190    0.0000 C   0  0  0  0  0  0  0  0  0  0  0  0
   11.4164   -6.8319    0.0000 C   0  0  0  0  0  0  0  0  0  0  0  0
   12.1328   -6.4185    0.0000 C   0  0  0  0  0  0  0  0  0  0  0  0
   12.1300   -5.5880    0.0000 C   0  0  0  0  0  0  0  0  0  0  0  0
   11.4146   -5.1789    0.0000 C   0  0  0  0  0  0  0  0  0  0  0  0
    9.9882   -5.1793    0.0000 C   0  0  0  0  0  0  0  0  0  0  0  0
    9.9880   -4.3543    0.0000 O   0  0  0  0  0  0  0  0  0  0  0  0
    9.2155   -5.5920    0.0000 C   0  0  0  0  0  0  0  0  0  0  0  0
   12.8429   -5.1728    0.0000 O   0  0  0  0  0  0  0  0  0  0  0  0
   12.8480   -6.8299    0.0000 O   0  0  0  0  0  0  0  0  0  0  0  0
   11.4162   -7.6569    0.0000 O   0  0  0  0  0  0  0  0  0  0  0  0
 13 16  2  0  0  0  0
  2  3  1  0  0  0  0
 16 17  1  0  0  0  0
  3  6  2  0  0  0  0
 17 18  2  0  0  0  0
 18 19  1  0  0  0  0
  5 10  1  0  0  0  0
 19 20  2  0  0  0  0
 13 20  1  0  0  0  0
  6  7  1  0  0  0  0
 19 21  1  0  0  0  0
  7  8  1  0  0  0  0
 18 22  1  0  0  0  0
  8  9  1  0  0  0  0
 17 23  1  0  0  0  0
  9 10  1  0  0  0  0
  4  5  2  0  0  0  0
 24 25  2  0  0  0  0
  8 11  1  0  0  0  0
 25 26  1  0  0  0  0
  1  4  1  0  0  0  0
 26 27  2  0  0  0  0
 11 12  1  0  0  0  0
 27 28  1  0  0  0  0
  5  6  1  0  0  0  0
 28 29  2  0  0  0  0
 24 29  1  0  0  0  0
  9 13  1  0  0  0  0
 24 30  1  0  0  0  0
 30 31  2  0  0  0  0
  3 14  1  0  0  0  0
 30 32  1  0  0  0  0
  1  2  2  0  0  0  0
 28 33  1  0  0  0  0
  1 15  1  0  0  0  0
 27 34  1  0  0  0  0
 26 35  1  0  0  0  0
A   23
Rgp
M  STY  1   1 MON
M  SLB  1   1   1
M  SAL   1 15   1   2   3   4   5   6   7   8   9  10  11  12  13  14  15
M  SAL   1  8  16  17  18  19  20  21  22  23
M  SDI   1  4   -3.5400   -9.1400   -3.5400   -3.0500
M  SDI   1  4    4.8900   -3.0500    4.8900   -9.1400
M  STY  1   2 MON
M  SLB  1   2   2
M  SAL   2 12  24  25  26  27  28  29  30  31  32  33  34  35
M  SDI   2  4    7.9200   -8.5800    7.9200   -3.6200
M  SDI   2  4   13.8200   -3.6200   13.8200   -8.5800
M  END
> <PUBCHEM_COMPOUND_ID_TYPE>
0

> <PUBCHEM_REFERENCE_STANDARDIZATION>
Halt - this structure was created from SID 135207091 version 7

> <PUBCHEM_SUBSTANCE_ID>
483926591

> <PUBCHEM_SUBSTANCE_VERSION>
1

> <PUBCHEM_EXT_DATASOURCE_NAME>
26136

> <PUBCHEM_EXT_DATASOURCE_REGID>
56305

> <PUBCHEM_SUBSTANCE_SYNONYM>
Sinecatechins
188265-33-0
Kunecatechins
T432289GYZ
Camellia sinensis Leaf Catechins
811420-59-4
CAMELLIA SINENSIS CATECHINS
Defined Green Tea Catechin Extract
Green Tea Polyphenon E
Polyphenon E (Green tea extract)
Polyphenon E TM
SINECATECHINS (MART.)
UNII-T432289GYZ

> <PUBCHEM_GENERIC_REGISTRY_NAME>
188265-33-0
811420-59-4

> <PUBCHEM_COORDINATE_TYPE>
1
3

$$$$
