91664366
  -OEChem-12112311382D

111113  0     1  0  0  0  0  0999 V2000
    2.1980    5.0171    0.0000 F   0  0  0  0  0  0  0  0  0  0  0  0
   12.1122    9.3472    0.0000 F   0  0  0  0  0  0  0  0  0  0  0  0
    6.9051    6.7242    0.0000 O   0  0  0  0  0  0  0  0  0  0  0  0
   10.6122    5.0171    0.0000 O   0  0  0  0  0  0  0  0  0  0  0  0
    6.9051    0.3100    0.0000 O   0  0  0  0  0  0  0  0  0  0  0  0
    7.4651   13.7502    0.0000 O   0  0  0  0  0  0  0  0  0  0  0  0
   14.3933   12.7502    0.0000 O   0  0  0  0  0  0  0  0  0  0  0  0
    0.5369   12.7502    0.0000 O   0  0  0  0  0  0  0  0  0  0  0  0
   13.5273   14.2502    0.0000 O   0  0  0  0  0  0  0  0  0  0  0  0
    1.4030   14.2502    0.0000 O   0  0  0  0  0  0  0  0  0  0  0  0
    6.1980    5.0171    0.0000 N   0  0  0  0  0  0  0  0  0  0  0  0
    7.6122    5.0171    0.0000 C   0  0  1  0  0  0  0  0  0  0  0  0
    6.9051    4.3100    0.0000 C   0  0  1  0  0  0  0  0  0  0  0  0
    8.6122    5.0171    0.0000 C   0  0  0  0  0  0  0  0  0  0  0  0
    6.9051    5.7242    0.0000 C   0  0  0  0  0  0  0  0  0  0  0  0
    6.9051    3.3100    0.0000 C   0  0  0  0  0  0  0  0  0  0  0  0
    9.1122    5.8831    0.0000 C   0  0  0  0  0  0  0  0  0  0  0  0
    5.1980    5.0171    0.0000 C   0  0  0  0  0  0  0  0  0  0  0  0
   10.1122    5.8831    0.0000 C   0  0  1  0  0  0  0  0  0  0  0  0
    7.7712    2.8100    0.0000 C   0  0  0  0  0  0  0  0  0  0  0  0
    6.0391    2.8100    0.0000 C   0  0  0  0  0  0  0  0  0  0  0  0
    4.6980    4.1511    0.0000 C   0  0  0  0  0  0  0  0  0  0  0  0
    4.6980    5.8831    0.0000 C   0  0  0  0  0  0  0  0  0  0  0  0
   10.6122    6.7492    0.0000 C   0  0  0  0  0  0  0  0  0  0  0  0
    7.7712    1.8100    0.0000 C   0  0  0  0  0  0  0  0  0  0  0  0
    6.0391    1.8100    0.0000 C   0  0  0  0  0  0  0  0  0  0  0  0
    6.9051    1.3100    0.0000 C   0  0  0  0  0  0  0  0  0  0  0  0
    3.6980    4.1511    0.0000 C   0  0  0  0  0  0  0  0  0  0  0  0
    3.6980    5.8831    0.0000 C   0  0  0  0  0  0  0  0  0  0  0  0
    7.4651   12.7502    0.0000 C   0  0  0  0  0  0  0  0  0  0  0  0
    8.3312   12.2502    0.0000 C   0  0  0  0  0  0  0  0  0  0  0  0
    6.5991   12.2502    0.0000 C   0  0  0  0  0  0  0  0  0  0  0  0
    9.1972   12.7502    0.0000 C   0  0  0  0  0  0  0  0  0  0  0  0
    5.7331   12.7502    0.0000 C   0  0  0  0  0  0  0  0  0  0  0  0
   10.0632   12.2502    0.0000 C   0  0  0  0  0  0  0  0  0  0  0  0
    4.8671   12.2502    0.0000 C   0  0  0  0  0  0  0  0  0  0  0  0
   10.9292   12.7502    0.0000 C   0  0  0  0  0  0  0  0  0  0  0  0
    4.0010   12.7502    0.0000 C   0  0  0  0  0  0  0  0  0  0  0  0
   11.7953   12.2502    0.0000 C   0  0  0  0  0  0  0  0  0  0  0  0
    3.1350   12.2502    0.0000 C   0  0  0  0  0  0  0  0  0  0  0  0
   12.6613   12.7502    0.0000 C   0  0  0  0  0  0  0  0  0  0  0  0
    2.2690   12.7502    0.0000 C   0  0  0  0  0  0  0  0  0  0  0  0
    3.1980    5.0171    0.0000 C   0  0  0  0  0  0  0  0  0  0  0  0
   10.1122    7.6152    0.0000 C   0  0  0  0  0  0  0  0  0  0  0  0
   11.6122    6.7492    0.0000 C   0  0  0  0  0  0  0  0  0  0  0  0
   12.1613   13.6162    0.0000 C   0  0  0  0  0  0  0  0  0  0  0  0
   13.1613   11.8842    0.0000 C   0  0  0  0  0  0  0  0  0  0  0  0
    1.7690   11.8842    0.0000 C   0  0  0  0  0  0  0  0  0  0  0  0
    2.7690   13.6162    0.0000 C   0  0  0  0  0  0  0  0  0  0  0  0
   10.6122    8.4812    0.0000 C   0  0  0  0  0  0  0  0  0  0  0  0
   12.1122    7.6152    0.0000 C   0  0  0  0  0  0  0  0  0  0  0  0
   13.5273   13.2502    0.0000 C   0  0  0  0  0  0  0  0  0  0  0  0
    1.4030   13.2502    0.0000 C   0  0  0  0  0  0  0  0  0  0  0  0
   11.6122    8.4812    0.0000 C   0  0  0  0  0  0  0  0  0  0  0  0
    7.8495    4.4443    0.0000 H   0  0  0  0  0  0  0  0  0  0  0  0
    6.3323    4.0727    0.0000 H   0  0  0  0  0  0  0  0  0  0  0  0
    8.5046    4.4065    0.0000 H   0  0  0  0  0  0  0  0  0  0  0  0
    9.1948    4.8050    0.0000 H   0  0  0  0  0  0  0  0  0  0  0  0
    9.2199    6.4937    0.0000 H   0  0  0  0  0  0  0  0  0  0  0  0
    8.5296    6.0952    0.0000 H   0  0  0  0  0  0  0  0  0  0  0  0
   10.7322    5.8831    0.0000 H   0  0  0  0  0  0  0  0  0  0  0  0
    8.3081    3.1200    0.0000 H   0  0  0  0  0  0  0  0  0  0  0  0
    5.5022    3.1200    0.0000 H   0  0  0  0  0  0  0  0  0  0  0  0
    5.0080    3.6142    0.0000 H   0  0  0  0  0  0  0  0  0  0  0  0
    5.0080    6.4201    0.0000 H   0  0  0  0  0  0  0  0  0  0  0  0
    8.3081    1.5000    0.0000 H   0  0  0  0  0  0  0  0  0  0  0  0
    5.5022    1.5000    0.0000 H   0  0  0  0  0  0  0  0  0  0  0  0
    6.9282   13.0602    0.0000 H   0  0  0  0  0  0  0  0  0  0  0  0
    3.3880    3.6142    0.0000 H   0  0  0  0  0  0  0  0  0  0  0  0
    3.3880    6.4201    0.0000 H   0  0  0  0  0  0  0  0  0  0  0  0
   11.2322    5.0171    0.0000 H   0  0  0  0  0  0  0  0  0  0  0  0
    7.9326   11.7752    0.0000 H   0  0  0  0  0  0  0  0  0  0  0  0
    8.7297   11.7752    0.0000 H   0  0  0  0  0  0  0  0  0  0  0  0
    6.2006   11.7752    0.0000 H   0  0  0  0  0  0  0  0  0  0  0  0
    6.9976   11.7752    0.0000 H   0  0  0  0  0  0  0  0  0  0  0  0
    9.5957   13.2251    0.0000 H   0  0  0  0  0  0  0  0  0  0  0  0
    8.7987   13.2251    0.0000 H   0  0  0  0  0  0  0  0  0  0  0  0
    6.1316   13.2251    0.0000 H   0  0  0  0  0  0  0  0  0  0  0  0
    5.3346   13.2251    0.0000 H   0  0  0  0  0  0  0  0  0  0  0  0
    9.6647   11.7752    0.0000 H   0  0  0  0  0  0  0  0  0  0  0  0
   10.4617   11.7752    0.0000 H   0  0  0  0  0  0  0  0  0  0  0  0
    4.4685   11.7752    0.0000 H   0  0  0  0  0  0  0  0  0  0  0  0
    5.2656   11.7752    0.0000 H   0  0  0  0  0  0  0  0  0  0  0  0
   11.3278   13.2251    0.0000 H   0  0  0  0  0  0  0  0  0  0  0  0
   10.5307   13.2251    0.0000 H   0  0  0  0  0  0  0  0  0  0  0  0
    4.3996   13.2251    0.0000 H   0  0  0  0  0  0  0  0  0  0  0  0
    3.6025   13.2251    0.0000 H   0  0  0  0  0  0  0  0  0  0  0  0
   11.3967   11.7752    0.0000 H   0  0  0  0  0  0  0  0  0  0  0  0
   12.1938   11.7752    0.0000 H   0  0  0  0  0  0  0  0  0  0  0  0
    2.7365   11.7752    0.0000 H   0  0  0  0  0  0  0  0  0  0  0  0
    3.5335   11.7752    0.0000 H   0  0  0  0  0  0  0  0  0  0  0  0
    9.4922    7.6152    0.0000 H   0  0  0  0  0  0  0  0  0  0  0  0
   11.9222    6.2122    0.0000 H   0  0  0  0  0  0  0  0  0  0  0  0
   12.6982   13.9262    0.0000 H   0  0  0  0  0  0  0  0  0  0  0  0
   11.8513   14.1532    0.0000 H   0  0  0  0  0  0  0  0  0  0  0  0
   11.6244   13.3062    0.0000 H   0  0  0  0  0  0  0  0  0  0  0  0
   12.6244   11.5742    0.0000 H   0  0  0  0  0  0  0  0  0  0  0  0
   13.4713   11.3472    0.0000 H   0  0  0  0  0  0  0  0  0  0  0  0
   13.6982   12.1942    0.0000 H   0  0  0  0  0  0  0  0  0  0  0  0
    1.2320   12.1942    0.0000 H   0  0  0  0  0  0  0  0  0  0  0  0
    1.4590   11.3472    0.0000 H   0  0  0  0  0  0  0  0  0  0  0  0
    2.3059   11.5742    0.0000 H   0  0  0  0  0  0  0  0  0  0  0  0
    3.3059   13.3062    0.0000 H   0  0  0  0  0  0  0  0  0  0  0  0
    3.0790   14.1532    0.0000 H   0  0  0  0  0  0  0  0  0  0  0  0
    2.2320   13.9262    0.0000 H   0  0  0  0  0  0  0  0  0  0  0  0
   10.3022    9.0181    0.0000 H   0  0  0  0  0  0  0  0  0  0  0  0
   12.7322    7.6152    0.0000 H   0  0  0  0  0  0  0  0  0  0  0  0
    7.4421    0.0000    0.0000 H   0  0  0  0  0  0  0  0  0  0  0  0
    6.9282   14.0602    0.0000 H   0  0  0  0  0  0  0  0  0  0  0  0
   14.9303   13.0602    0.0000 H   0  0  0  0  0  0  0  0  0  0  0  0
    0.0000   13.0602    0.0000 H   0  0  0  0  0  0  0  0  0  0  0  0
  1 43  1  0  0  0  0
  2 54  1  0  0  0  0
  3 15  2  0  0  0  0
 19  4  1  1  0  0  0
  4 71  1  0  0  0  0
  5 27  1  0  0  0  0
  5108  1  0  0  0  0
  6 30  1  0  0  0  0
  6109  1  0  0  0  0
  7 52  1  0  0  0  0
  7110  1  0  0  0  0
  8 53  1  0  0  0  0
  8111  1  0  0  0  0
  9 52  2  0  0  0  0
 10 53  2  0  0  0  0
 11 13  1  0  0  0  0
 11 15  1  0  0  0  0
 11 18  1  0  0  0  0
 12 13  1  0  0  0  0
 12 14  1  6  0  0  0
 12 15  1  0  0  0  0
 12 55  1  0  0  0  0
 13 16  1  1  0  0  0
 13 56  1  0  0  0  0
 14 17  1  0  0  0  0
 14 57  1  0  0  0  0
 14 58  1  0  0  0  0
 16 20  2  0  0  0  0
 16 21  1  0  0  0  0
 17 19  1  0  0  0  0
 17 59  1  0  0  0  0
 17 60  1  0  0  0  0
 18 22  2  0  0  0  0
 18 23  1  0  0  0  0
 19 24  1  0  0  0  0
 19 61  1  0  0  0  0
 20 25  1  0  0  0  0
 20 62  1  0  0  0  0
 21 26  2  0  0  0  0
 21 63  1  0  0  0  0
 22 28  1  0  0  0  0
 22 64  1  0  0  0  0
 23 29  2  0  0  0  0
 23 65  1  0  0  0  0
 24 44  2  0  0  0  0
 24 45  1  0  0  0  0
 25 27  2  0  0  0  0
 25 66  1  0  0  0  0
 26 27  1  0  0  0  0
 26 67  1  0  0  0  0
 28 43  2  0  0  0  0
 28 69  1  0  0  0  0
 29 43  1  0  0  0  0
 29 70  1  0  0  0  0
 30 31  1  0  0  0  0
 30 32  1  0  0  0  0
 30 68  1  0  0  0  0
 31 33  1  0  0  0  0
 31 72  1  0  0  0  0
 31 73  1  0  0  0  0
 32 34  1  0  0  0  0
 32 74  1  0  0  0  0
 32 75  1  0  0  0  0
 33 35  1  0  0  0  0
 33 76  1  0  0  0  0
 33 77  1  0  0  0  0
 34 36  1  0  0  0  0
 34 78  1  0  0  0  0
 34 79  1  0  0  0  0
 35 37  1  0  0  0  0
 35 80  1  0  0  0  0
 35 81  1  0  0  0  0
 36 38  1  0  0  0  0
 36 82  1  0  0  0  0
 36 83  1  0  0  0  0
 37 39  1  0  0  0  0
 37 84  1  0  0  0  0
 37 85  1  0  0  0  0
 38 40  1  0  0  0  0
 38 86  1  0  0  0  0
 38 87  1  0  0  0  0
 39 41  1  0  0  0  0
 39 88  1  0  0  0  0
 39 89  1  0  0  0  0
 40 42  1  0  0  0  0
 40 90  1  0  0  0  0
 40 91  1  0  0  0  0
 41 46  1  0  0  0  0
 41 47  1  0  0  0  0
 41 52  1  0  0  0  0
 42 48  1  0  0  0  0
 42 49  1  0  0  0  0
 42 53  1  0  0  0  0
 44 50  1  0  0  0  0
 44 92  1  0  0  0  0
 45 51  2  0  0  0  0
 45 93  1  0  0  0  0
 46 94  1  0  0  0  0
 46 95  1  0  0  0  0
 46 96  1  0  0  0  0
 47 97  1  0  0  0  0
 47 98  1  0  0  0  0
 47 99  1  0  0  0  0
 48100  1  0  0  0  0
 48101  1  0  0  0  0
 48102  1  0  0  0  0
 49103  1  0  0  0  0
 49104  1  0  0  0  0
 49105  1  0  0  0  0
 50 54  2  0  0  0  0
 50106  1  0  0  0  0
 51 54  1  0  0  0  0
 51107  1  0  0  0  0
M  END
> <PUBCHEM_COMPOUND_CID>
91664366

> <PUBCHEM_COMPOUND_CANONICALIZED>
1

> <PUBCHEM_CACTVS_COMPLEXITY>
918

> <PUBCHEM_CACTVS_HBOND_ACCEPTOR>
10

> <PUBCHEM_CACTVS_HBOND_DONOR>
5

> <PUBCHEM_CACTVS_ROTATABLE_BOND>
20

> <PUBCHEM_CACTVS_SUBSKEYS>
AAADcfB+PYAAAAAAAAAAAAAAAABYAAAAAAAwYMAAAAAAAAABUAAAHwAACAAADzzhmA4yzoMAAgCIAiXSWACCAAAhIgAIiAEObIgINjrCkZOEcAhkxhHI2AeY3OPPIAAAAAAAAABAAAAAAAAAAAAAAAAAAA==

> <PUBCHEM_IUPAC_OPENEYE_NAME>
(3R,4S)-1-(4-fluorophenyl)-3-[(3S)-3-(4-fluorophenyl)-3-hydroxy-propyl]-4-(4-hydroxyphenyl)azetidin-2-one;8-hydroxy-2,2,14,14-tetramethyl-pentadecanedioic acid

> <PUBCHEM_IUPAC_CAS_NAME>
(3R,4S)-1-(4-fluorophenyl)-3-[(3S)-3-(4-fluorophenyl)-3-hydroxypropyl]-4-(4-hydroxyphenyl)-2-azetidinone;8-hydroxy-2,2,14,14-tetramethylpentadecanedioic acid

> <PUBCHEM_IUPAC_NAME_MARKUP>
(3<I>R</I>,4<I>S</I>)-1-(4-fluorophenyl)-3-[(3<I>S</I>)-3-(4-fluorophenyl)-3-hydroxypropyl]-4-(4-hydroxyphenyl)azetidin-2-one;8-hydroxy-2,2,14,14-tetramethylpentadecanedioic acid

> <PUBCHEM_IUPAC_NAME>
(3R,4S)-1-(4-fluorophenyl)-3-[(3S)-3-(4-fluorophenyl)-3-hydroxypropyl]-4-(4-hydroxyphenyl)azetidin-2-one;8-hydroxy-2,2,14,14-tetramethylpentadecanedioic acid

> <PUBCHEM_IUPAC_SYSTEMATIC_NAME>
(3R,4S)-1-(4-fluorophenyl)-3-[(3S)-3-(4-fluorophenyl)-3-oxidanyl-propyl]-4-(4-hydroxyphenyl)azetidin-2-one;2,2,14,14-tetramethyl-8-oxidanyl-pentadecanedioic acid

> <PUBCHEM_IUPAC_TRADITIONAL_NAME>
(3R,4S)-1-(4-fluorophenyl)-3-[(3S)-3-(4-fluorophenyl)-3-hydroxy-propyl]-4-(4-hydroxyphenyl)azetidin-2-one;8-hydroxy-2,2,14,14-tetramethyl-pentadecanedioic acid

> <PUBCHEM_IUPAC_INCHI>
InChI=1S/C24H21F2NO3.C19H36O5/c25-17-5-1-15(2-6-17)22(29)14-13-21-23(16-3-11-20(28)12-4-16)27(24(21)30)19-9-7-18(26)8-10-19;1-18(2,16(21)22)13-9-5-7-11-15(20)12-8-6-10-14-19(3,4)17(23)24/h1-12,21-23,28-29H,13-14H2;15,20H,5-14H2,1-4H3,(H,21,22)(H,23,24)/t21-,22+,23-;/m1./s1

> <PUBCHEM_IUPAC_INCHIKEY>
MKGUXOHPHJGYGC-HZLAGBECSA-N

> <PUBCHEM_EXACT_MASS>
753.40522410

> <PUBCHEM_MOLECULAR_FORMULA>
C43H57F2NO8

> <PUBCHEM_MOLECULAR_WEIGHT>
753.9

> <PUBCHEM_OPENEYE_CAN_SMILES>
CC(C)(CCCCCC(CCCCCC(C)(C)C(=O)O)O)C(=O)O.C1=CC(=CC=C1C2C(C(=O)N2C3=CC=C(C=C3)F)CCC(C4=CC=C(C=C4)F)O)O

> <PUBCHEM_OPENEYE_ISO_SMILES>
CC(C)(CCCCCC(CCCCCC(C)(C)C(=O)O)O)C(=O)O.C1=CC(=CC=C1[C@@H]2[C@H](C(=O)N2C3=CC=C(C=C3)F)CC[C@@H](C4=CC=C(C=C4)F)O)O

> <PUBCHEM_CACTVS_TPSA>
156

> <PUBCHEM_MONOISOTOPIC_WEIGHT>
753.40522410

> <PUBCHEM_TOTAL_CHARGE>
0

> <PUBCHEM_HEAVY_ATOM_COUNT>
54

> <PUBCHEM_ATOM_DEF_STEREO_COUNT>
3

> <PUBCHEM_ATOM_UDEF_STEREO_COUNT>
0

> <PUBCHEM_BOND_DEF_STEREO_COUNT>
0

> <PUBCHEM_BOND_UDEF_STEREO_COUNT>
0

> <PUBCHEM_ISOTOPIC_ATOM_COUNT>
0

> <PUBCHEM_COMPONENT_COUNT>
2

> <PUBCHEM_CACTVS_TAUTO_COUNT>
-1

> <PUBCHEM_COORDINATE_TYPE>
1
5
255

> <PUBCHEM_BONDANNOTATIONS>
12  14  6
13  16  5
16  20  8
16  21  8
18  22  8
18  23  8
20  25  8
21  26  8
22  28  8
23  29  8
24  44  8
24  45  8
25  27  8
26  27  8
28  43  8
29  43  8
19  4  5
44  50  8
45  51  8
50  54  8
51  54  8

$$$$
