52918379
  -OEChem-12122307562D

146149  0     1  0  0  0  0  0999 V2000
   13.1488   17.8777    0.0000 O   0  0  0  0  0  0  0  0  0  0  0  0
   13.1488    5.5369    0.0000 O   0  0  0  0  0  0  0  0  0  0  0  0
   12.2828   17.3777    0.0000 O   0  0  0  0  0  0  0  0  0  0  0  0
   12.2828    5.0369    0.0000 O   0  0  0  0  0  0  0  0  0  0  0  0
   16.6408   18.8430    0.0000 O   0  0  0  0  0  0  0  0  0  0  0  0
   16.6408    6.5023    0.0000 O   0  0  0  0  0  0  0  0  0  0  0  0
   16.6408   20.9123    0.0000 O   0  0  0  0  0  0  0  0  0  0  0  0
   16.6408    8.5716    0.0000 O   0  0  0  0  0  0  0  0  0  0  0  0
    2.2690   10.0849    0.0000 O   0  0  0  0  0  0  0  0  0  0  0  0
    3.1350   12.5849    0.0000 O   0  0  0  0  0  0  0  0  0  0  0  0
    0.5369   11.0849    0.0000 O   0  0  0  0  0  0  0  0  0  0  0  0
    4.8671   11.5849    0.0000 O   0  0  0  0  0  0  0  0  0  0  0  0
    1.4030   12.5849    0.0000 O   0  0  0  0  0  0  0  0  0  0  0  0
    4.0010   10.0849    0.0000 O   0  0  0  0  0  0  0  0  0  0  0  0
   11.4168   20.8777    0.0000 N   0  0  0  0  0  0  0  0  0  0  0  0
   11.4168    8.5369    0.0000 N   0  0  0  0  0  0  0  0  0  0  0  0
   11.4168   18.8777    0.0000 N   0  0  0  0  0  0  0  0  0  0  0  0
   11.4168    6.5369    0.0000 N   0  0  0  0  0  0  0  0  0  0  0  0
   11.3122   21.8722    0.0000 C   0  0  0  0  0  0  0  0  0  0  0  0
   10.5032   20.4710    0.0000 C   0  0  0  0  0  0  0  0  0  0  0  0
   11.3122    9.5315    0.0000 C   0  0  0  0  0  0  0  0  0  0  0  0
   10.5032    8.1302    0.0000 C   0  0  0  0  0  0  0  0  0  0  0  0
   10.3341   22.0801    0.0000 C   0  0  0  0  0  0  0  0  0  0  0  0
    9.8341   21.2141    0.0000 C   0  0  0  0  0  0  0  0  0  0  0  0
   10.3341    9.7394    0.0000 C   0  0  0  0  0  0  0  0  0  0  0  0
    9.8341    8.8733    0.0000 C   0  0  0  0  0  0  0  0  0  0  0  0
   12.2828   20.3777    0.0000 C   0  0  0  0  0  0  0  0  0  0  0  0
   12.2828    8.0369    0.0000 C   0  0  0  0  0  0  0  0  0  0  0  0
   12.2828   19.3777    0.0000 C   0  0  2  0  0  0  0  0  0  0  0  0
   12.2828    7.0369    0.0000 C   0  0  2  0  0  0  0  0  0  0  0  0
   13.1488   18.8777    0.0000 C   0  0  1  0  0  0  0  0  0  0  0  0
   13.1488    6.5369    0.0000 C   0  0  1  0  0  0  0  0  0  0  0  0
   14.0148   19.3777    0.0000 C   0  0  0  0  0  0  0  0  0  0  0  0
   14.0148    7.0369    0.0000 C   0  0  0  0  0  0  0  0  0  0  0  0
   11.4168   17.8777    0.0000 C   0  0  0  0  0  0  0  0  0  0  0  0
   11.4168    5.5369    0.0000 C   0  0  0  0  0  0  0  0  0  0  0  0
   10.5507   17.3777    0.0000 C   0  0  0  0  0  0  0  0  0  0  0  0
   10.5507    5.0369    0.0000 C   0  0  0  0  0  0  0  0  0  0  0  0
   14.8809   18.8777    0.0000 C   0  0  0  0  0  0  0  0  0  0  0  0
   14.8809    6.5369    0.0000 C   0  0  0  0  0  0  0  0  0  0  0  0
   14.0148   20.3777    0.0000 C   0  0  0  0  0  0  0  0  0  0  0  0
   14.0148    8.0369    0.0000 C   0  0  0  0  0  0  0  0  0  0  0  0
   10.5507   16.3777    0.0000 C   0  0  0  0  0  0  0  0  0  0  0  0
   10.5507    4.0369    0.0000 C   0  0  0  0  0  0  0  0  0  0  0  0
   15.7469   19.3777    0.0000 C   0  0  0  0  0  0  0  0  0  0  0  0
   15.7469    7.0369    0.0000 C   0  0  0  0  0  0  0  0  0  0  0  0
    9.6847   15.8777    0.0000 C   0  0  0  0  0  0  0  0  0  0  0  0
    9.6847    3.5369    0.0000 C   0  0  0  0  0  0  0  0  0  0  0  0
   14.8809   20.8777    0.0000 C   0  0  0  0  0  0  0  0  0  0  0  0
   14.8809    8.5369    0.0000 C   0  0  0  0  0  0  0  0  0  0  0  0
   15.7469   20.3777    0.0000 C   0  0  0  0  0  0  0  0  0  0  0  0
   15.7469    8.0369    0.0000 C   0  0  0  0  0  0  0  0  0  0  0  0
    9.6847   14.8777    0.0000 C   0  0  0  0  0  0  0  0  0  0  0  0
    9.6847    2.5369    0.0000 C   0  0  0  0  0  0  0  0  0  0  0  0
    8.8187   14.3777    0.0000 C   0  0  0  0  0  0  0  0  0  0  0  0
    8.8187    2.0369    0.0000 C   0  0  0  0  0  0  0  0  0  0  0  0
   17.5469   19.3569    0.0000 C   0  0  0  0  0  0  0  0  0  0  0  0
   17.5469    7.0161    0.0000 C   0  0  0  0  0  0  0  0  0  0  0  0
   17.5469   20.3985    0.0000 C   0  0  0  0  0  0  0  0  0  0  0  0
   17.5469    8.0578    0.0000 C   0  0  0  0  0  0  0  0  0  0  0  0
    8.8187   13.3777    0.0000 C   0  0  0  0  0  0  0  0  0  0  0  0
    8.8187    1.0369    0.0000 C   0  0  0  0  0  0  0  0  0  0  0  0
    7.9527   12.8777    0.0000 C   0  0  0  0  0  0  0  0  0  0  0  0
    7.9527    0.5369    0.0000 C   0  0  0  0  0  0  0  0  0  0  0  0
    2.2690   11.0849    0.0000 C   0  0  2  0  0  0  0  0  0  0  0  0
    3.1350   11.5849    0.0000 C   0  0  2  0  0  0  0  0  0  0  0  0
    1.4030   11.5849    0.0000 C   0  0  0  0  0  0  0  0  0  0  0  0
    4.0010   11.0849    0.0000 C   0  0  0  0  0  0  0  0  0  0  0  0
   11.9322   21.8722    0.0000 H   0  0  0  0  0  0  0  0  0  0  0  0
   11.3770   22.4888    0.0000 H   0  0  0  0  0  0  0  0  0  0  0  0
   10.0016   20.1065    0.0000 H   0  0  0  0  0  0  0  0  0  0  0  0
   10.8132   19.9340    0.0000 H   0  0  0  0  0  0  0  0  0  0  0  0
   11.9322    9.5315    0.0000 H   0  0  0  0  0  0  0  0  0  0  0  0
   11.3770   10.1481    0.0000 H   0  0  0  0  0  0  0  0  0  0  0  0
   10.0016    7.7658    0.0000 H   0  0  0  0  0  0  0  0  0  0  0  0
   10.8132    7.5933    0.0000 H   0  0  0  0  0  0  0  0  0  0  0  0
   10.5257   22.6698    0.0000 H   0  0  0  0  0  0  0  0  0  0  0  0
    9.7677   22.3323    0.0000 H   0  0  0  0  0  0  0  0  0  0  0  0
    9.3325   21.5785    0.0000 H   0  0  0  0  0  0  0  0  0  0  0  0
    9.4192   20.7533    0.0000 H   0  0  0  0  0  0  0  0  0  0  0  0
   10.5257   10.3290    0.0000 H   0  0  0  0  0  0  0  0  0  0  0  0
    9.7677    9.9916    0.0000 H   0  0  0  0  0  0  0  0  0  0  0  0
    9.3325    9.2378    0.0000 H   0  0  0  0  0  0  0  0  0  0  0  0
    9.4192    8.4126    0.0000 H   0  0  0  0  0  0  0  0  0  0  0  0
   12.8934   20.2700    0.0000 H   0  0  0  0  0  0  0  0  0  0  0  0
   12.4948   20.9603    0.0000 H   0  0  0  0  0  0  0  0  0  0  0  0
   12.8934    7.9293    0.0000 H   0  0  0  0  0  0  0  0  0  0  0  0
   12.4948    8.6195    0.0000 H   0  0  0  0  0  0  0  0  0  0  0  0
   12.2828   18.7577    0.0000 H   0  0  0  0  0  0  0  0  0  0  0  0
   11.7459    7.3469    0.0000 H   0  0  0  0  0  0  0  0  0  0  0  0
   13.6858   18.5677    0.0000 H   0  0  0  0  0  0  0  0  0  0  0  0
   13.6858    6.2269    0.0000 H   0  0  0  0  0  0  0  0  0  0  0  0
   10.8798   19.1877    0.0000 H   0  0  0  0  0  0  0  0  0  0  0  0
   10.8798    6.8469    0.0000 H   0  0  0  0  0  0  0  0  0  0  0  0
   13.6857   17.5677    0.0000 H   0  0  0  0  0  0  0  0  0  0  0  0
   13.6858    5.2269    0.0000 H   0  0  0  0  0  0  0  0  0  0  0  0
   10.3387   17.9603    0.0000 H   0  0  0  0  0  0  0  0  0  0  0  0
    9.9402   17.2700    0.0000 H   0  0  0  0  0  0  0  0  0  0  0  0
   10.3387    5.6195    0.0000 H   0  0  0  0  0  0  0  0  0  0  0  0
    9.9402    4.9293    0.0000 H   0  0  0  0  0  0  0  0  0  0  0  0
   14.8809   18.2577    0.0000 H   0  0  0  0  0  0  0  0  0  0  0  0
   14.8809    5.9169    0.0000 H   0  0  0  0  0  0  0  0  0  0  0  0
   13.4779   20.6877    0.0000 H   0  0  0  0  0  0  0  0  0  0  0  0
   13.4779    8.3469    0.0000 H   0  0  0  0  0  0  0  0  0  0  0  0
   10.7628   15.7951    0.0000 H   0  0  0  0  0  0  0  0  0  0  0  0
   11.1613   16.4853    0.0000 H   0  0  0  0  0  0  0  0  0  0  0  0
   10.7628    3.4543    0.0000 H   0  0  0  0  0  0  0  0  0  0  0  0
   11.1613    4.1446    0.0000 H   0  0  0  0  0  0  0  0  0  0  0  0
    9.4727   16.4603    0.0000 H   0  0  0  0  0  0  0  0  0  0  0  0
    9.0741   15.7700    0.0000 H   0  0  0  0  0  0  0  0  0  0  0  0
    9.4727    4.1195    0.0000 H   0  0  0  0  0  0  0  0  0  0  0  0
    9.0741    3.4293    0.0000 H   0  0  0  0  0  0  0  0  0  0  0  0
   14.8809   21.4977    0.0000 H   0  0  0  0  0  0  0  0  0  0  0  0
   14.8809    9.1569    0.0000 H   0  0  0  0  0  0  0  0  0  0  0  0
    9.8968   14.2951    0.0000 H   0  0  0  0  0  0  0  0  0  0  0  0
   10.2953   14.9853    0.0000 H   0  0  0  0  0  0  0  0  0  0  0  0
    9.8968    1.9543    0.0000 H   0  0  0  0  0  0  0  0  0  0  0  0
   10.2953    2.6446    0.0000 H   0  0  0  0  0  0  0  0  0  0  0  0
    8.6066   14.9603    0.0000 H   0  0  0  0  0  0  0  0  0  0  0  0
    8.2081   14.2700    0.0000 H   0  0  0  0  0  0  0  0  0  0  0  0
    8.6066    2.6196    0.0000 H   0  0  0  0  0  0  0  0  0  0  0  0
    8.2081    1.9293    0.0000 H   0  0  0  0  0  0  0  0  0  0  0  0
   17.7560   18.7732    0.0000 H   0  0  0  0  0  0  0  0  0  0  0  0
   18.1578   19.4630    0.0000 H   0  0  0  0  0  0  0  0  0  0  0  0
   17.7560    6.4324    0.0000 H   0  0  0  0  0  0  0  0  0  0  0  0
   18.1578    7.1222    0.0000 H   0  0  0  0  0  0  0  0  0  0  0  0
   18.1578   20.2924    0.0000 H   0  0  0  0  0  0  0  0  0  0  0  0
   17.7560   20.9822    0.0000 H   0  0  0  0  0  0  0  0  0  0  0  0
   18.1578    7.9517    0.0000 H   0  0  0  0  0  0  0  0  0  0  0  0
   17.7560    8.6414    0.0000 H   0  0  0  0  0  0  0  0  0  0  0  0
    9.0307   12.7951    0.0000 H   0  0  0  0  0  0  0  0  0  0  0  0
    9.4293   13.4853    0.0000 H   0  0  0  0  0  0  0  0  0  0  0  0
    9.0307    0.4543    0.0000 H   0  0  0  0  0  0  0  0  0  0  0  0
    9.4293    1.1446    0.0000 H   0  0  0  0  0  0  0  0  0  0  0  0
    7.6427   13.4146    0.0000 H   0  0  0  0  0  0  0  0  0  0  0  0
    7.4157   12.5677    0.0000 H   0  0  0  0  0  0  0  0  0  0  0  0
    8.2627   12.3408    0.0000 H   0  0  0  0  0  0  0  0  0  0  0  0
    7.6427    1.0739    0.0000 H   0  0  0  0  0  0  0  0  0  0  0  0
    7.4157    0.2269    0.0000 H   0  0  0  0  0  0  0  0  0  0  0  0
    8.2627    0.0000    0.0000 H   0  0  0  0  0  0  0  0  0  0  0  0
    2.8059   10.7749    0.0000 H   0  0  0  0  0  0  0  0  0  0  0  0
    3.6720   11.8949    0.0000 H   0  0  0  0  0  0  0  0  0  0  0  0
    1.7320    9.7749    0.0000 H   0  0  0  0  0  0  0  0  0  0  0  0
    3.6720   12.8949    0.0000 H   0  0  0  0  0  0  0  0  0  0  0  0
    0.0000   11.3949    0.0000 H   0  0  0  0  0  0  0  0  0  0  0  0
    5.4040   11.2749    0.0000 H   0  0  0  0  0  0  0  0  0  0  0  0
 31  1  1  1  0  0  0
  1 95  1  0  0  0  0
 32  2  1  1  0  0  0
  2 96  1  0  0  0  0
  3 35  2  0  0  0  0
  4 36  2  0  0  0  0
  5 45  1  0  0  0  0
  5 57  1  0  0  0  0
  6 46  1  0  0  0  0
  6 58  1  0  0  0  0
  7 51  1  0  0  0  0
  7 59  1  0  0  0  0
  8 52  1  0  0  0  0
  8 60  1  0  0  0  0
 65  9  1  1  0  0  0
  9143  1  0  0  0  0
 66 10  1  1  0  0  0
 10144  1  0  0  0  0
 11 67  1  0  0  0  0
 11145  1  0  0  0  0
 12 68  1  0  0  0  0
 12146  1  0  0  0  0
 13 67  2  0  0  0  0
 14 68  2  0  0  0  0
 15 19  1  0  0  0  0
 15 20  1  0  0  0  0
 15 27  1  0  0  0  0
 16 21  1  0  0  0  0
 16 22  1  0  0  0  0
 16 28  1  0  0  0  0
 29 17  1  6  0  0  0
 17 35  1  0  0  0  0
 17 93  1  0  0  0  0
 30 18  1  6  0  0  0
 18 36  1  0  0  0  0
 18 94  1  0  0  0  0
 19 23  1  0  0  0  0
 19 69  1  0  0  0  0
 19 70  1  0  0  0  0
 20 24  1  0  0  0  0
 20 71  1  0  0  0  0
 20 72  1  0  0  0  0
 21 25  1  0  0  0  0
 21 73  1  0  0  0  0
 21 74  1  0  0  0  0
 22 26  1  0  0  0  0
 22 75  1  0  0  0  0
 22 76  1  0  0  0  0
 23 24  1  0  0  0  0
 23 77  1  0  0  0  0
 23 78  1  0  0  0  0
 24 79  1  0  0  0  0
 24 80  1  0  0  0  0
 25 26  1  0  0  0  0
 25 81  1  0  0  0  0
 25 82  1  0  0  0  0
 26 83  1  0  0  0  0
 26 84  1  0  0  0  0
 27 29  1  0  0  0  0
 27 85  1  0  0  0  0
 27 86  1  0  0  0  0
 28 30  1  0  0  0  0
 28 87  1  0  0  0  0
 28 88  1  0  0  0  0
 29 31  1  0  0  0  0
 29 89  1  0  0  0  0
 30 32  1  0  0  0  0
 30 90  1  0  0  0  0
 31 33  1  0  0  0  0
 31 91  1  0  0  0  0
 32 34  1  0  0  0  0
 32 92  1  0  0  0  0
 33 39  2  0  0  0  0
 33 41  1  0  0  0  0
 34 40  2  0  0  0  0
 34 42  1  0  0  0  0
 35 37  1  0  0  0  0
 36 38  1  0  0  0  0
 37 43  1  0  0  0  0
 37 97  1  0  0  0  0
 37 98  1  0  0  0  0
 38 44  1  0  0  0  0
 38 99  1  0  0  0  0
 38100  1  0  0  0  0
 39 45  1  0  0  0  0
 39101  1  0  0  0  0
 40 46  1  0  0  0  0
 40102  1  0  0  0  0
 41 49  2  0  0  0  0
 41103  1  0  0  0  0
 42 50  2  0  0  0  0
 42104  1  0  0  0  0
 43 47  1  0  0  0  0
 43105  1  0  0  0  0
 43106  1  0  0  0  0
 44 48  1  0  0  0  0
 44107  1  0  0  0  0
 44108  1  0  0  0  0
 45 51  2  0  0  0  0
 46 52  2  0  0  0  0
 47 53  1  0  0  0  0
 47109  1  0  0  0  0
 47110  1  0  0  0  0
 48 54  1  0  0  0  0
 48111  1  0  0  0  0
 48112  1  0  0  0  0
 49 51  1  0  0  0  0
 49113  1  0  0  0  0
 50 52  1  0  0  0  0
 50114  1  0  0  0  0
 53 55  1  0  0  0  0
 53115  1  0  0  0  0
 53116  1  0  0  0  0
 54 56  1  0  0  0  0
 54117  1  0  0  0  0
 54118  1  0  0  0  0
 55 61  1  0  0  0  0
 55119  1  0  0  0  0
 55120  1  0  0  0  0
 56 62  1  0  0  0  0
 56121  1  0  0  0  0
 56122  1  0  0  0  0
 57 59  1  0  0  0  0
 57123  1  0  0  0  0
 57124  1  0  0  0  0
 58 60  1  0  0  0  0
 58125  1  0  0  0  0
 58126  1  0  0  0  0
 59127  1  0  0  0  0
 59128  1  0  0  0  0
 60129  1  0  0  0  0
 60130  1  0  0  0  0
 61 63  1  0  0  0  0
 61131  1  0  0  0  0
 61132  1  0  0  0  0
 62 64  1  0  0  0  0
 62133  1  0  0  0  0
 62134  1  0  0  0  0
 63135  1  0  0  0  0
 63136  1  0  0  0  0
 63137  1  0  0  0  0
 64138  1  0  0  0  0
 64139  1  0  0  0  0
 64140  1  0  0  0  0
 65 66  1  0  0  0  0
 65 67  1  0  0  0  0
 65141  1  0  0  0  0
 66 68  1  0  0  0  0
 66142  1  0  0  0  0
M  END
> <PUBCHEM_COMPOUND_CID>
52918379

> <PUBCHEM_COMPOUND_CANONICALIZED>
1

> <PUBCHEM_CACTVS_COMPLEXITY>
617

> <PUBCHEM_CACTVS_HBOND_ACCEPTOR>
16

> <PUBCHEM_CACTVS_HBOND_DONOR>
8

> <PUBCHEM_CACTVS_ROTATABLE_BOND>
25

> <PUBCHEM_CACTVS_SUBSKEYS>
AAADcfB/vAAAAAAAAAAAAAAAAAAAAWLAAAA0aIEAAAAAAACRQAAAHgAQCAAADDzhmAYyDoPABgCIAiHSGAICCAAgIAAIiIFOiIgPdjaEsRuWeCKn9hGbuAfb+L+OIAABAAAAQABAAAIAAACAAAAAAAAAAA==

> <PUBCHEM_IUPAC_OPENEYE_NAME>
N-[(1R,2R)-2-(2,3-dihydro-1,4-benzodioxin-6-yl)-2-hydroxy-1-(pyrrolidin-1-ylmethyl)ethyl]octanamide;(2R,3R)-2,3-dihydroxybutanedioic acid

> <PUBCHEM_IUPAC_CAS_NAME>
N-[(1R,2R)-1-(2,3-dihydro-1,4-benzodioxin-6-yl)-1-hydroxy-3-(1-pyrrolidinyl)propan-2-yl]octanamide;(2R,3R)-2,3-dihydroxybutanedioic acid

> <PUBCHEM_IUPAC_NAME_MARKUP>
<I>N</I>-[(1<I>R</I>,2<I>R</I>)-1-(2,3-dihydro-1,4-benzodioxin-6-yl)-1-hydroxy-3-pyrrolidin-1-ylpropan-2-yl]octanamide;(2<I>R</I>,3<I>R</I>)-2,3-dihydroxybutanedioic acid

> <PUBCHEM_IUPAC_NAME>
N-[(1R,2R)-1-(2,3-dihydro-1,4-benzodioxin-6-yl)-1-hydroxy-3-pyrrolidin-1-ylpropan-2-yl]octanamide;(2R,3R)-2,3-dihydroxybutanedioic acid

> <PUBCHEM_IUPAC_SYSTEMATIC_NAME>
(2R,3R)-2,3-bis(oxidanyl)butanedioic acid;N-[(1R,2R)-1-(2,3-dihydro-1,4-benzodioxin-6-yl)-1-oxidanyl-3-pyrrolidin-1-yl-propan-2-yl]octanamide

> <PUBCHEM_IUPAC_TRADITIONAL_NAME>
N-[(1R,2R)-2-(2,3-dihydro-1,4-benzodioxin-6-yl)-2-hydroxy-1-(pyrrolidinomethyl)ethyl]caprylamide;(2R,3R)-2,3-dihydroxysuccinic acid

> <PUBCHEM_IUPAC_INCHI>
InChI=1S/2C23H36N2O4.C4H6O6/c2*1-2-3-4-5-6-9-22(26)24-19(17-25-12-7-8-13-25)23(27)18-10-11-20-21(16-18)29-15-14-28-20;5-1(3(7)8)2(6)4(9)10/h2*10-11,16,19,23,27H,2-9,12-15,17H2,1H3,(H,24,26);1-2,5-6H,(H,7,8)(H,9,10)/t2*19-,23-;1-,2-/m111/s1

> <PUBCHEM_IUPAC_INCHIKEY>
KUBARPMUNHKBIQ-VTHUDJRQSA-N

> <PUBCHEM_EXACT_MASS>
958.55145317

> <PUBCHEM_MOLECULAR_FORMULA>
C50H78N4O14

> <PUBCHEM_MOLECULAR_WEIGHT>
959.2

> <PUBCHEM_OPENEYE_CAN_SMILES>
CCCCCCCC(=O)NC(CN1CCCC1)C(C2=CC3=C(C=C2)OCCO3)O.CCCCCCCC(=O)NC(CN1CCCC1)C(C2=CC3=C(C=C2)OCCO3)O.C(C(C(=O)O)O)(C(=O)O)O

> <PUBCHEM_OPENEYE_ISO_SMILES>
CCCCCCCC(=O)N[C@H](CN1CCCC1)[C@@H](C2=CC3=C(C=C2)OCCO3)O.CCCCCCCC(=O)N[C@H](CN1CCCC1)[C@@H](C2=CC3=C(C=C2)OCCO3)O.[C@@H]([C@H](C(=O)O)O)(C(=O)O)O

> <PUBCHEM_CACTVS_TPSA>
257

> <PUBCHEM_MONOISOTOPIC_WEIGHT>
958.55145317

> <PUBCHEM_TOTAL_CHARGE>
0

> <PUBCHEM_HEAVY_ATOM_COUNT>
68

> <PUBCHEM_ATOM_DEF_STEREO_COUNT>
6

> <PUBCHEM_ATOM_UDEF_STEREO_COUNT>
0

> <PUBCHEM_BOND_DEF_STEREO_COUNT>
0

> <PUBCHEM_BOND_UDEF_STEREO_COUNT>
0

> <PUBCHEM_ISOTOPIC_ATOM_COUNT>
0

> <PUBCHEM_COMPONENT_COUNT>
3

> <PUBCHEM_CACTVS_TAUTO_COUNT>
-1

> <PUBCHEM_COORDINATE_TYPE>
1
5
255

> <PUBCHEM_BONDANNOTATIONS>
31  1  5
66  10  5
29  17  6
30  18  6
32  2  5
33  39  8
33  41  8
34  40  8
34  42  8
39  45  8
40  46  8
41  49  8
42  50  8
45  51  8
46  52  8
49  51  8
50  52  8
65  9  5

$$$$
