168322416
  -OEChem-12122310222D

 87 89  0     1  0  0  0  0  0999 V2000
    7.1962    3.5000    0.0000 P   0  0  0  0  0  0  0  0  0  0  0  0
   10.6603    2.5000    0.0000 P   0  0  0  0  0  0  0  0  0  0  0  0
    3.7320   -3.5000    0.0000 P   0  0  0  0  0  0  0  0  0  0  0  0
    8.9282    0.5000    0.0000 O   0  0  0  0  0  0  0  0  0  0  0  0
    6.3301    1.0000    0.0000 O   0  0  0  0  0  0  0  0  0  0  0  0
    9.7942   -1.0000    0.0000 O   0  0  0  0  0  0  0  0  0  0  0  0
    5.4641   -0.5000    0.0000 O   0  0  0  0  0  0  0  0  0  0  0  0
   11.5263    1.0000    0.0000 O   0  0  0  0  0  0  0  0  0  0  0  0
    6.3301   -1.0000    0.0000 O   0  0  0  0  0  0  0  0  0  0  0  0
    8.0622   -2.0000    0.0000 O   0  0  0  0  0  0  0  0  0  0  0  0
    2.8660   -1.0000    0.0000 O   0  0  0  0  0  0  0  0  0  0  0  0
   11.5263   -2.0000    0.0000 O   0  0  0  0  0  0  0  0  0  0  0  0
    4.5981    2.0000    0.0000 O   0  0  0  0  0  0  0  0  0  0  0  0
    2.8660    1.0000    0.0000 O   0  0  0  0  0  0  0  0  0  0  0  0
    7.1962    2.5000    0.0000 O   0  0  0  0  0  0  0  0  0  0  0  0
   13.2583   -1.0000    0.0000 O   0  0  0  0  0  0  0  0  0  0  0  0
   13.2583    1.0000    0.0000 O   0  0  0  0  0  0  0  0  0  0  0  0
    9.7942    2.0000    0.0000 O   0  0  0  0  0  0  0  0  0  0  0  0
    3.7320   -2.5000    0.0000 O   0  0  0  0  0  0  0  0  0  0  0  0
    7.1962    4.5000    0.0000 O   0  0  0  0  0  0  0  0  0  0  0  0
    6.1962    3.5000    0.0000 O   0  0  0  0  0  0  0  0  0  0  0  0
    8.1962    3.5000    0.0000 O   0  0  0  0  0  0  0  0  0  0  0  0
   11.5263    3.0000    0.0000 O   0  0  0  0  0  0  0  0  0  0  0  0
   10.1603    3.3660    0.0000 O   0  0  0  0  0  0  0  0  0  0  0  0
    3.7320   -4.5000    0.0000 O   0  0  0  0  0  0  0  0  0  0  0  0
    2.7320   -3.5000    0.0000 O   0  0  0  0  0  0  0  0  0  0  0  0
   11.1603    1.6340    0.0000 O   0  0  0  0  0  0  0  0  0  0  0  0
    4.7320   -3.5000    0.0000 O   0  0  0  0  0  0  0  0  0  0  0  0
    7.1962    0.5000    0.0000 C   0  0  1  0  0  0  0  0  0  0  0  0
    7.1962   -0.5000    0.0000 C   0  0  1  0  0  0  0  0  0  0  0  0
    8.0622    1.0000    0.0000 C   0  0  1  0  0  0  0  0  0  0  0  0
    8.0622   -1.0000    0.0000 C   0  0  2  0  0  0  0  0  0  0  0  0
    8.9282   -0.5000    0.0000 C   0  0  1  0  0  0  0  0  0  0  0  0
   10.6603   -0.5000    0.0000 C   0  0  1  0  0  0  0  0  0  0  0  0
    5.4641    0.5000    0.0000 C   0  0  2  0  0  0  0  0  0  0  0  0
   11.5263   -1.0000    0.0000 C   0  0  1  0  0  0  0  0  0  0  0  0
    4.5981    1.0000    0.0000 C   0  0  1  0  0  0  0  0  0  0  0  0
   10.6603    0.5000    0.0000 C   0  0  1  0  0  0  0  0  0  0  0  0
    3.7320    0.5000    0.0000 C   0  0  2  0  0  0  0  0  0  0  0  0
    3.7320   -0.5000    0.0000 C   0  0  1  0  0  0  0  0  0  0  0  0
    4.5981   -1.0000    0.0000 C   0  0  1  0  0  0  0  0  0  0  0  0
   12.3923   -0.5000    0.0000 C   0  0  2  0  0  0  0  0  0  0  0  0
    8.0622    2.0000    0.0000 C   0  0  0  0  0  0  0  0  0  0  0  0
   12.3923    0.5000    0.0000 C   0  0  1  0  0  0  0  0  0  0  0  0
    9.7942    1.0000    0.0000 C   0  0  0  0  0  0  0  0  0  0  0  0
    4.5981   -2.0000    0.0000 C   0  0  0  0  0  0  0  0  0  0  0  0
    2.0000   -0.5000    0.0000 C   0  0  0  0  0  0  0  0  0  0  0  0
   13.2583    2.0000    0.0000 C   0  0  0  0  0  0  0  0  0  0  0  0
    7.1962    1.1200    0.0000 H   0  0  0  0  0  0  0  0  0  0  0  0
    6.6592   -0.1900    0.0000 H   0  0  0  0  0  0  0  0  0  0  0  0
    8.5991    1.3100    0.0000 H   0  0  0  0  0  0  0  0  0  0  0  0
    7.5252   -1.3100    0.0000 H   0  0  0  0  0  0  0  0  0  0  0  0
    8.9282   -1.1200    0.0000 H   0  0  0  0  0  0  0  0  0  0  0  0
   10.6603   -1.1200    0.0000 H   0  0  0  0  0  0  0  0  0  0  0  0
    5.4641    1.1200    0.0000 H   0  0  0  0  0  0  0  0  0  0  0  0
   12.0632   -1.3100    0.0000 H   0  0  0  0  0  0  0  0  0  0  0  0
    4.0611    1.3100    0.0000 H   0  0  0  0  0  0  0  0  0  0  0  0
   10.6603    1.1200    0.0000 H   0  0  0  0  0  0  0  0  0  0  0  0
    3.7320    1.1200    0.0000 H   0  0  0  0  0  0  0  0  0  0  0  0
    3.7320   -1.1200    0.0000 H   0  0  0  0  0  0  0  0  0  0  0  0
    5.1350   -1.3100    0.0000 H   0  0  0  0  0  0  0  0  0  0  0  0
   12.3923   -1.1200    0.0000 H   0  0  0  0  0  0  0  0  0  0  0  0
    8.6728    1.8923    0.0000 H   0  0  0  0  0  0  0  0  0  0  0  0
    8.2742    2.5826    0.0000 H   0  0  0  0  0  0  0  0  0  0  0  0
   12.9292    0.1900    0.0000 H   0  0  0  0  0  0  0  0  0  0  0  0
    9.1836    1.1077    0.0000 H   0  0  0  0  0  0  0  0  0  0  0  0
    9.5822    0.4174    0.0000 H   0  0  0  0  0  0  0  0  0  0  0  0
    4.8101   -2.5826    0.0000 H   0  0  0  0  0  0  0  0  0  0  0  0
    5.2087   -1.8923    0.0000 H   0  0  0  0  0  0  0  0  0  0  0  0
    6.3301   -1.6200    0.0000 H   0  0  0  0  0  0  0  0  0  0  0  0
    8.5991   -2.3100    0.0000 H   0  0  0  0  0  0  0  0  0  0  0  0
   12.0632   -2.3100    0.0000 H   0  0  0  0  0  0  0  0  0  0  0  0
    4.0611    2.3100    0.0000 H   0  0  0  0  0  0  0  0  0  0  0  0
    2.3291    0.6900    0.0000 H   0  0  0  0  0  0  0  0  0  0  0  0
   13.7953   -0.6900    0.0000 H   0  0  0  0  0  0  0  0  0  0  0  0
    2.3100    0.0369    0.0000 H   0  0  0  0  0  0  0  0  0  0  0  0
    1.4631   -0.1900    0.0000 H   0  0  0  0  0  0  0  0  0  0  0  0
    1.6900   -1.0369    0.0000 H   0  0  0  0  0  0  0  0  0  0  0  0
   13.8783    2.0000    0.0000 H   0  0  0  0  0  0  0  0  0  0  0  0
   13.2583    2.6200    0.0000 H   0  0  0  0  0  0  0  0  0  0  0  0
   12.6383    2.0000    0.0000 H   0  0  0  0  0  0  0  0  0  0  0  0
    6.6592    4.8100    0.0000 H   0  0  0  0  0  0  0  0  0  0  0  0
    5.8862    4.0369    0.0000 H   0  0  0  0  0  0  0  0  0  0  0  0
   11.5263    3.6200    0.0000 H   0  0  0  0  0  0  0  0  0  0  0  0
   10.4703    3.9030    0.0000 H   0  0  0  0  0  0  0  0  0  0  0  0
    3.1951   -4.8100    0.0000 H   0  0  0  0  0  0  0  0  0  0  0  0
    2.4220   -4.0369    0.0000 H   0  0  0  0  0  0  0  0  0  0  0  0
  1 15  1  0  0  0  0
  1 20  1  0  0  0  0
  1 21  1  0  0  0  0
  1 22  2  0  0  0  0
  2 18  1  0  0  0  0
  2 23  1  0  0  0  0
  2 24  1  0  0  0  0
  2 27  2  0  0  0  0
  3 19  1  0  0  0  0
  3 25  1  0  0  0  0
  3 26  1  0  0  0  0
  3 28  2  0  0  0  0
  4 31  1  0  0  0  0
  4 33  1  0  0  0  0
 29  5  1  6  0  0  0
 35  5  1  6  0  0  0
 33  6  1  1  0  0  0
 34  6  1  6  0  0  0
  7 35  1  0  0  0  0
  7 41  1  0  0  0  0
  8 38  1  0  0  0  0
  8 44  1  0  0  0  0
 30  9  1  1  0  0  0
  9 70  1  0  0  0  0
 32 10  1  6  0  0  0
 10 71  1  0  0  0  0
 40 11  1  1  0  0  0
 11 47  1  0  0  0  0
 36 12  1  1  0  0  0
 12 72  1  0  0  0  0
 37 13  1  1  0  0  0
 13 73  1  0  0  0  0
 39 14  1  6  0  0  0
 14 74  1  0  0  0  0
 15 43  1  0  0  0  0
 42 16  1  6  0  0  0
 16 75  1  0  0  0  0
 44 17  1  1  0  0  0
 17 48  1  0  0  0  0
 18 45  1  0  0  0  0
 19 46  1  0  0  0  0
 20 82  1  0  0  0  0
 21 83  1  0  0  0  0
 23 84  1  0  0  0  0
 24 85  1  0  0  0  0
 25 86  1  0  0  0  0
 26 87  1  0  0  0  0
 29 30  1  0  0  0  0
 29 31  1  0  0  0  0
 29 49  1  0  0  0  0
 30 32  1  0  0  0  0
 30 50  1  0  0  0  0
 31 43  1  1  0  0  0
 31 51  1  0  0  0  0
 32 33  1  0  0  0  0
 32 52  1  0  0  0  0
 33 53  1  0  0  0  0
 34 36  1  0  0  0  0
 34 38  1  0  0  0  0
 34 54  1  0  0  0  0
 35 37  1  0  0  0  0
 35 55  1  0  0  0  0
 36 42  1  0  0  0  0
 36 56  1  0  0  0  0
 37 39  1  0  0  0  0
 37 57  1  0  0  0  0
 38 45  1  1  0  0  0
 38 58  1  0  0  0  0
 39 40  1  0  0  0  0
 39 59  1  0  0  0  0
 40 41  1  0  0  0  0
 40 60  1  0  0  0  0
 41 46  1  6  0  0  0
 41 61  1  0  0  0  0
 42 44  1  0  0  0  0
 42 62  1  0  0  0  0
 43 63  1  0  0  0  0
 43 64  1  0  0  0  0
 44 65  1  0  0  0  0
 45 66  1  0  0  0  0
 45 67  1  0  0  0  0
 46 68  1  0  0  0  0
 46 69  1  0  0  0  0
 47 76  1  0  0  0  0
 47 77  1  0  0  0  0
 47 78  1  0  0  0  0
 48 79  1  0  0  0  0
 48 80  1  0  0  0  0
 48 81  1  0  0  0  0
M  END
> <PUBCHEM_COMPOUND_CID>
168322416

> <PUBCHEM_COMPOUND_CANONICALIZED>
1

> <PUBCHEM_CACTVS_COMPLEXITY>
1160

> <PUBCHEM_CACTVS_HBOND_ACCEPTOR>
25

> <PUBCHEM_CACTVS_HBOND_DONOR>
12

> <PUBCHEM_CACTVS_ROTATABLE_BOND>
15

> <PUBCHEM_CACTVS_SUBSKEYS>
AAADcfB4PgMAAAAAAAAAAAAAAAAAAAAAAAAkSJAAAAAAAAAAAAAAGgAACCAACBSwgAMCCAAABxAAQAAAAIAAAAAAAAAAAAAAAAAREAIAAAAiQAAFAAAHAAHAYAwAAAAAAAAAAAAAAAAAAAAAAAAAAAAAAA==

> <PUBCHEM_IUPAC_OPENEYE_NAME>
[(2R,3S,4R,5R,6S)-3-[(2S,3R,4R,5S,6R)-3,4-dihydroxy-5-methoxy-6-(phosphonooxymethyl)tetrahydropyran-2-yl]oxy-6-[(2R,3S,4R,5R,6R)-4,5-dihydroxy-6-methoxy-2-(phosphonooxymethyl)tetrahydropyran-3-yl]oxy-4,5-dihydroxy-tetrahydropyran-2-yl]methyl dihydrogen phosphate

> <PUBCHEM_IUPAC_CAS_NAME>
[(2R,3S,4R,5R,6S)-3-[[(2S,3R,4R,5S,6R)-3,4-dihydroxy-5-methoxy-6-(phosphonooxymethyl)-2-oxanyl]oxy]-6-[[(2R,3S,4R,5R,6R)-4,5-dihydroxy-6-methoxy-2-(phosphonooxymethyl)-3-oxanyl]oxy]-4,5-dihydroxy-2-oxanyl]methyl dihydrogen phosphate

> <PUBCHEM_IUPAC_NAME_MARKUP>
[(2<I>R</I>,3<I>S</I>,4<I>R</I>,5<I>R</I>,6<I>S</I>)-3-[(2<I>S</I>,3<I>R</I>,4<I>R</I>,5<I>S</I>,6<I>R</I>)-3,4-dihydroxy-5-methoxy-6-(phosphonooxymethyl)oxan-2-yl]oxy-6-[(2<I>R</I>,3<I>S</I>,4<I>R</I>,5<I>R</I>,6<I>R</I>)-4,5-dihydroxy-6-methoxy-2-(phosphonooxymethyl)oxan-3-yl]oxy-4,5-dihydroxyoxan-2-yl]methyl dihydrogen phosphate

> <PUBCHEM_IUPAC_NAME>
[(2R,3S,4R,5R,6S)-3-[(2S,3R,4R,5S,6R)-3,4-dihydroxy-5-methoxy-6-(phosphonooxymethyl)oxan-2-yl]oxy-6-[(2R,3S,4R,5R,6R)-4,5-dihydroxy-6-methoxy-2-(phosphonooxymethyl)oxan-3-yl]oxy-4,5-dihydroxyoxan-2-yl]methyl dihydrogen phosphate

> <PUBCHEM_IUPAC_SYSTEMATIC_NAME>
[(2R,3S,4R,5R,6S)-3-[(2S,3R,4R,5S,6R)-5-methoxy-3,4-bis(oxidanyl)-6-(phosphonooxymethyl)oxan-2-yl]oxy-6-[(2R,3S,4R,5R,6R)-6-methoxy-4,5-bis(oxidanyl)-2-(phosphonooxymethyl)oxan-3-yl]oxy-4,5-bis(oxidanyl)oxan-2-yl]methyl dihydrogen phosphate

> <PUBCHEM_IUPAC_TRADITIONAL_NAME>
[(2R,3S,4R,5R,6S)-3-[(2S,3R,4R,5S,6R)-3,4-dihydroxy-5-methoxy-6-(phosphonooxymethyl)tetrahydropyran-2-yl]oxy-6-[(2R,3S,4R,5R,6R)-4,5-dihydroxy-6-methoxy-2-(phosphonooxymethyl)tetrahydropyran-3-yl]oxy-4,5-dihydroxy-tetrahydropyran-2-yl]methyl dihydrogen phosphate

> <PUBCHEM_IUPAC_INCHI>
InChI=1S/C20H39O25P3/c1-36-15-6(3-38-46(27,28)29)42-19(13(25)9(15)21)45-17-8(5-40-48(33,34)35)43-20(14(26)11(17)23)44-16-7(4-39-47(30,31)32)41-18(37-2)12(24)10(16)22/h6-26H,3-5H2,1-2H3,(H2,27,28,29)(H2,30,31,32)(H2,33,34,35)/t6-,7-,8-,9-,10-,11-,12-,13-,14-,15-,16-,17-,18-,19+,20+/m1/s1

> <PUBCHEM_IUPAC_INCHIKEY>
OPGGJVPVXZGUFD-DZWSDULXSA-N

> <PUBCHEM_XLOGP3_AA>
-9.6

> <PUBCHEM_EXACT_MASS>
772.09932772

> <PUBCHEM_MOLECULAR_FORMULA>
C20H39O25P3

> <PUBCHEM_MOLECULAR_WEIGHT>
772.4

> <PUBCHEM_OPENEYE_CAN_SMILES>
COC1C(OC(C(C1O)O)OC2C(OC(C(C2O)O)OC3C(OC(C(C3O)O)OC)COP(=O)(O)O)COP(=O)(O)O)COP(=O)(O)O

> <PUBCHEM_OPENEYE_ISO_SMILES>
CO[C@@H]1[C@H](O[C@H]([C@@H]([C@H]1O)O)O[C@@H]2[C@H](O[C@H]([C@@H]([C@H]2O)O)O[C@@H]3[C@H](O[C@H]([C@@H]([C@H]3O)O)OC)COP(=O)(O)O)COP(=O)(O)O)COP(=O)(O)O

> <PUBCHEM_CACTVS_TPSA>
386

> <PUBCHEM_MONOISOTOPIC_WEIGHT>
772.09932772

> <PUBCHEM_TOTAL_CHARGE>
0

> <PUBCHEM_HEAVY_ATOM_COUNT>
48

> <PUBCHEM_ATOM_DEF_STEREO_COUNT>
15

> <PUBCHEM_ATOM_UDEF_STEREO_COUNT>
0

> <PUBCHEM_BOND_DEF_STEREO_COUNT>
0

> <PUBCHEM_BOND_UDEF_STEREO_COUNT>
0

> <PUBCHEM_ISOTOPIC_ATOM_COUNT>
0

> <PUBCHEM_COMPONENT_COUNT>
1

> <PUBCHEM_CACTVS_TAUTO_COUNT>
-1

> <PUBCHEM_COORDINATE_TYPE>
1
5
255

> <PUBCHEM_BONDANNOTATIONS>
32  10  6
40  11  5
36  12  5
37  13  5
39  14  6
42  16  6
44  17  5
31  43  5
38  45  5
41  46  6
29  5  6
35  5  6
33  6  5
34  6  6
30  9  5

$$$$
168322417
  -OEChem-12122310222D

 81 83  0     1  0  0  0  0  0999 V2000
    7.1962    3.5000    0.0000 P   0  0  0  0  0  0  0  0  0  0  0  0
   10.6603    2.5000    0.0000 P   0  0  0  0  0  0  0  0  0  0  0  0
    3.7320   -3.5000    0.0000 P   0  0  0  0  0  0  0  0  0  0  0  0
    8.9282    0.5000    0.0000 O   0  0  0  0  0  0  0  0  0  0  0  0
    6.3301    1.0000    0.0000 O   0  0  0  0  0  0  0  0  0  0  0  0
    9.7942   -1.0000    0.0000 O   0  0  0  0  0  0  0  0  0  0  0  0
    5.4641   -0.5000    0.0000 O   0  0  0  0  0  0  0  0  0  0  0  0
   11.5263    1.0000    0.0000 O   0  0  0  0  0  0  0  0  0  0  0  0
    6.3301   -1.0000    0.0000 O   0  0  0  0  0  0  0  0  0  0  0  0
    8.0622   -2.0000    0.0000 O   0  0  0  0  0  0  0  0  0  0  0  0
    2.8660   -1.0000    0.0000 O   0  0  0  0  0  0  0  0  0  0  0  0
   11.5263   -2.0000    0.0000 O   0  0  0  0  0  0  0  0  0  0  0  0
    4.5981    2.0000    0.0000 O   0  0  0  0  0  0  0  0  0  0  0  0
    2.8660    1.0000    0.0000 O   0  0  0  0  0  0  0  0  0  0  0  0
   13.2583   -1.0000    0.0000 O   0  0  0  0  0  0  0  0  0  0  0  0
    7.1962    2.5000    0.0000 O   0  0  0  0  0  0  0  0  0  0  0  0
   13.2583    1.0000    0.0000 O   0  0  0  0  0  0  0  0  0  0  0  0
    9.7942    2.0000    0.0000 O   0  0  0  0  0  0  0  0  0  0  0  0
    3.7320   -2.5000    0.0000 O   0  0  0  0  0  0  0  0  0  0  0  0
    7.1962    4.5000    0.0000 O   0  5  0  0  0  0  0  0  0  0  0  0
    6.1962    3.5000    0.0000 O   0  5  0  0  0  0  0  0  0  0  0  0
    8.1962    3.5000    0.0000 O   0  0  0  0  0  0  0  0  0  0  0  0
   11.5263    3.0000    0.0000 O   0  5  0  0  0  0  0  0  0  0  0  0
   10.1603    3.3660    0.0000 O   0  5  0  0  0  0  0  0  0  0  0  0
   11.1603    1.6340    0.0000 O   0  0  0  0  0  0  0  0  0  0  0  0
    3.7320   -4.5000    0.0000 O   0  5  0  0  0  0  0  0  0  0  0  0
    2.7320   -3.5000    0.0000 O   0  5  0  0  0  0  0  0  0  0  0  0
    4.7320   -3.5000    0.0000 O   0  0  0  0  0  0  0  0  0  0  0  0
    7.1962    0.5000    0.0000 C   0  0  1  0  0  0  0  0  0  0  0  0
    7.1962   -0.5000    0.0000 C   0  0  1  0  0  0  0  0  0  0  0  0
    8.0622    1.0000    0.0000 C   0  0  1  0  0  0  0  0  0  0  0  0
    8.0622   -1.0000    0.0000 C   0  0  2  0  0  0  0  0  0  0  0  0
    8.9282   -0.5000    0.0000 C   0  0  1  0  0  0  0  0  0  0  0  0
   10.6603   -0.5000    0.0000 C   0  0  1  0  0  0  0  0  0  0  0  0
    5.4641    0.5000    0.0000 C   0  0  2  0  0  0  0  0  0  0  0  0
   11.5263   -1.0000    0.0000 C   0  0  1  0  0  0  0  0  0  0  0  0
    4.5981    1.0000    0.0000 C   0  0  1  0  0  0  0  0  0  0  0  0
   10.6603    0.5000    0.0000 C   0  0  1  0  0  0  0  0  0  0  0  0
    3.7320    0.5000    0.0000 C   0  0  2  0  0  0  0  0  0  0  0  0
    3.7320   -0.5000    0.0000 C   0  0  1  0  0  0  0  0  0  0  0  0
    4.5981   -1.0000    0.0000 C   0  0  1  0  0  0  0  0  0  0  0  0
   12.3923   -0.5000    0.0000 C   0  0  2  0  0  0  0  0  0  0  0  0
    8.0622    2.0000    0.0000 C   0  0  0  0  0  0  0  0  0  0  0  0
   12.3923    0.5000    0.0000 C   0  0  1  0  0  0  0  0  0  0  0  0
    9.7942    1.0000    0.0000 C   0  0  0  0  0  0  0  0  0  0  0  0
    4.5981   -2.0000    0.0000 C   0  0  0  0  0  0  0  0  0  0  0  0
    2.0000   -0.5000    0.0000 C   0  0  0  0  0  0  0  0  0  0  0  0
   13.2583    2.0000    0.0000 C   0  0  0  0  0  0  0  0  0  0  0  0
    7.1962    1.1200    0.0000 H   0  0  0  0  0  0  0  0  0  0  0  0
    6.6592   -0.1900    0.0000 H   0  0  0  0  0  0  0  0  0  0  0  0
    8.5991    1.3100    0.0000 H   0  0  0  0  0  0  0  0  0  0  0  0
    7.5252   -1.3100    0.0000 H   0  0  0  0  0  0  0  0  0  0  0  0
    8.9282   -1.1200    0.0000 H   0  0  0  0  0  0  0  0  0  0  0  0
   10.6603   -1.1200    0.0000 H   0  0  0  0  0  0  0  0  0  0  0  0
    5.4641    1.1200    0.0000 H   0  0  0  0  0  0  0  0  0  0  0  0
   12.0632   -1.3100    0.0000 H   0  0  0  0  0  0  0  0  0  0  0  0
    4.0611    1.3100    0.0000 H   0  0  0  0  0  0  0  0  0  0  0  0
   10.6603    1.1200    0.0000 H   0  0  0  0  0  0  0  0  0  0  0  0
    3.7320    1.1200    0.0000 H   0  0  0  0  0  0  0  0  0  0  0  0
    3.7320   -1.1200    0.0000 H   0  0  0  0  0  0  0  0  0  0  0  0
    5.1350   -1.3100    0.0000 H   0  0  0  0  0  0  0  0  0  0  0  0
   12.3923   -1.1200    0.0000 H   0  0  0  0  0  0  0  0  0  0  0  0
    8.6728    1.8923    0.0000 H   0  0  0  0  0  0  0  0  0  0  0  0
    8.2742    2.5826    0.0000 H   0  0  0  0  0  0  0  0  0  0  0  0
   12.9292    0.1900    0.0000 H   0  0  0  0  0  0  0  0  0  0  0  0
    9.1836    1.1077    0.0000 H   0  0  0  0  0  0  0  0  0  0  0  0
    9.5822    0.4174    0.0000 H   0  0  0  0  0  0  0  0  0  0  0  0
    4.8101   -2.5826    0.0000 H   0  0  0  0  0  0  0  0  0  0  0  0
    5.2087   -1.8923    0.0000 H   0  0  0  0  0  0  0  0  0  0  0  0
    6.3301   -1.6200    0.0000 H   0  0  0  0  0  0  0  0  0  0  0  0
    8.5991   -2.3100    0.0000 H   0  0  0  0  0  0  0  0  0  0  0  0
   12.0632   -2.3100    0.0000 H   0  0  0  0  0  0  0  0  0  0  0  0
    4.0611    2.3100    0.0000 H   0  0  0  0  0  0  0  0  0  0  0  0
    2.3291    0.6900    0.0000 H   0  0  0  0  0  0  0  0  0  0  0  0
   13.7953   -0.6900    0.0000 H   0  0  0  0  0  0  0  0  0  0  0  0
    2.3100    0.0369    0.0000 H   0  0  0  0  0  0  0  0  0  0  0  0
    1.4631   -0.1900    0.0000 H   0  0  0  0  0  0  0  0  0  0  0  0
    1.6900   -1.0369    0.0000 H   0  0  0  0  0  0  0  0  0  0  0  0
   13.8783    2.0000    0.0000 H   0  0  0  0  0  0  0  0  0  0  0  0
   13.2583    2.6200    0.0000 H   0  0  0  0  0  0  0  0  0  0  0  0
   12.6383    2.0000    0.0000 H   0  0  0  0  0  0  0  0  0  0  0  0
  1 16  1  0  0  0  0
  1 20  1  0  0  0  0
  1 21  1  0  0  0  0
  1 22  2  0  0  0  0
  2 18  1  0  0  0  0
  2 23  1  0  0  0  0
  2 24  1  0  0  0  0
  2 25  2  0  0  0  0
  3 19  1  0  0  0  0
  3 26  1  0  0  0  0
  3 27  1  0  0  0  0
  3 28  2  0  0  0  0
  4 31  1  0  0  0  0
  4 33  1  0  0  0  0
 29  5  1  6  0  0  0
 35  5  1  6  0  0  0
 33  6  1  1  0  0  0
 34  6  1  6  0  0  0
  7 35  1  0  0  0  0
  7 41  1  0  0  0  0
  8 38  1  0  0  0  0
  8 44  1  0  0  0  0
 30  9  1  1  0  0  0
  9 70  1  0  0  0  0
 32 10  1  6  0  0  0
 10 71  1  0  0  0  0
 40 11  1  1  0  0  0
 11 47  1  0  0  0  0
 36 12  1  1  0  0  0
 12 72  1  0  0  0  0
 37 13  1  1  0  0  0
 13 73  1  0  0  0  0
 39 14  1  6  0  0  0
 14 74  1  0  0  0  0
 42 15  1  6  0  0  0
 15 75  1  0  0  0  0
 16 43  1  0  0  0  0
 44 17  1  1  0  0  0
 17 48  1  0  0  0  0
 18 45  1  0  0  0  0
 19 46  1  0  0  0  0
 29 30  1  0  0  0  0
 29 31  1  0  0  0  0
 29 49  1  0  0  0  0
 30 32  1  0  0  0  0
 30 50  1  0  0  0  0
 31 43  1  1  0  0  0
 31 51  1  0  0  0  0
 32 33  1  0  0  0  0
 32 52  1  0  0  0  0
 33 53  1  0  0  0  0
 34 36  1  0  0  0  0
 34 38  1  0  0  0  0
 34 54  1  0  0  0  0
 35 37  1  0  0  0  0
 35 55  1  0  0  0  0
 36 42  1  0  0  0  0
 36 56  1  0  0  0  0
 37 39  1  0  0  0  0
 37 57  1  0  0  0  0
 38 45  1  1  0  0  0
 38 58  1  0  0  0  0
 39 40  1  0  0  0  0
 39 59  1  0  0  0  0
 40 41  1  0  0  0  0
 40 60  1  0  0  0  0
 41 46  1  6  0  0  0
 41 61  1  0  0  0  0
 42 44  1  0  0  0  0
 42 62  1  0  0  0  0
 43 63  1  0  0  0  0
 43 64  1  0  0  0  0
 44 65  1  0  0  0  0
 45 66  1  0  0  0  0
 45 67  1  0  0  0  0
 46 68  1  0  0  0  0
 46 69  1  0  0  0  0
 47 76  1  0  0  0  0
 47 77  1  0  0  0  0
 47 78  1  0  0  0  0
 48 79  1  0  0  0  0
 48 80  1  0  0  0  0
 48 81  1  0  0  0  0
M  CHG  6  20  -1  21  -1  23  -1  24  -1  26  -1  27  -1
M  END
> <PUBCHEM_COMPOUND_CID>
168322417

> <PUBCHEM_COMPOUND_CANONICALIZED>
1

> <PUBCHEM_CACTVS_COMPLEXITY>
1130

> <PUBCHEM_CACTVS_HBOND_ACCEPTOR>
25

> <PUBCHEM_CACTVS_HBOND_DONOR>
6

> <PUBCHEM_CACTVS_ROTATABLE_BOND>
12

> <PUBCHEM_CACTVS_SUBSKEYS>
AAADcfB4PgMAAAAAAAAAAAAAAAAAAAAAAAAkSJAAAAAAAAAAAAAAGgAACCAACBSwgAMCCAAABxAAQAAAAIAAAAAAAAAAAAAAAAAREAIAAAAiQAAFAAAHAAHAYAwAAAAAAAAAAAAAAAAAAAAAAAAAAAAAAA==

> <PUBCHEM_IUPAC_OPENEYE_NAME>
[(2R,3S,4R,5R,6S)-3-[(2S,3R,4R,5S,6R)-3,4-dihydroxy-5-methoxy-6-(phosphonatooxymethyl)tetrahydropyran-2-yl]oxy-6-[(2R,3S,4R,5R,6R)-4,5-dihydroxy-6-methoxy-2-(phosphonatooxymethyl)tetrahydropyran-3-yl]oxy-4,5-dihydroxy-tetrahydropyran-2-yl]methyl phosphate

> <PUBCHEM_IUPAC_CAS_NAME>
[(2R,3S,4R,5R,6S)-3-[[(2S,3R,4R,5S,6R)-3,4-dihydroxy-5-methoxy-6-(phosphonatooxymethyl)-2-oxanyl]oxy]-6-[[(2R,3S,4R,5R,6R)-4,5-dihydroxy-6-methoxy-2-(phosphonatooxymethyl)-3-oxanyl]oxy]-4,5-dihydroxy-2-oxanyl]methyl phosphate

> <PUBCHEM_IUPAC_NAME_MARKUP>
[(2<I>R</I>,3<I>S</I>,4<I>R</I>,5<I>R</I>,6<I>S</I>)-3-[(2<I>S</I>,3<I>R</I>,4<I>R</I>,5<I>S</I>,6<I>R</I>)-3,4-dihydroxy-5-methoxy-6-(phosphonatooxymethyl)oxan-2-yl]oxy-6-[(2<I>R</I>,3<I>S</I>,4<I>R</I>,5<I>R</I>,6<I>R</I>)-4,5-dihydroxy-6-methoxy-2-(phosphonatooxymethyl)oxan-3-yl]oxy-4,5-dihydroxyoxan-2-yl]methyl phosphate

> <PUBCHEM_IUPAC_NAME>
[(2R,3S,4R,5R,6S)-3-[(2S,3R,4R,5S,6R)-3,4-dihydroxy-5-methoxy-6-(phosphonatooxymethyl)oxan-2-yl]oxy-6-[(2R,3S,4R,5R,6R)-4,5-dihydroxy-6-methoxy-2-(phosphonatooxymethyl)oxan-3-yl]oxy-4,5-dihydroxyoxan-2-yl]methyl phosphate

> <PUBCHEM_IUPAC_SYSTEMATIC_NAME>
[(2R,3S,4R,5R,6S)-3-[(2S,3R,4R,5S,6R)-5-methoxy-3,4-bis(oxidanyl)-6-(phosphonatooxymethyl)oxan-2-yl]oxy-6-[(2R,3S,4R,5R,6R)-6-methoxy-4,5-bis(oxidanyl)-2-(phosphonatooxymethyl)oxan-3-yl]oxy-4,5-bis(oxidanyl)oxan-2-yl]methyl phosphate

> <PUBCHEM_IUPAC_TRADITIONAL_NAME>
[(2R,3S,4R,5R,6S)-3-[(2S,3R,4R,5S,6R)-3,4-dihydroxy-5-methoxy-6-(phosphatomethyl)tetrahydropyran-2-yl]oxy-6-[(2R,3S,4R,5R,6R)-4,5-dihydroxy-6-methoxy-2-(phosphatomethyl)tetrahydropyran-3-yl]oxy-4,5-dihydroxy-tetrahydropyran-2-yl]methyl phosphate

> <PUBCHEM_IUPAC_INCHI>
InChI=1S/C20H39O25P3/c1-36-15-6(3-38-46(27,28)29)42-19(13(25)9(15)21)45-17-8(5-40-48(33,34)35)43-20(14(26)11(17)23)44-16-7(4-39-47(30,31)32)41-18(37-2)12(24)10(16)22/h6-26H,3-5H2,1-2H3,(H2,27,28,29)(H2,30,31,32)(H2,33,34,35)/p-6/t6-,7-,8-,9-,10-,11-,12-,13-,14-,15-,16-,17-,18-,19+,20+/m1/s1

> <PUBCHEM_IUPAC_INCHIKEY>
OPGGJVPVXZGUFD-DZWSDULXSA-H

> <PUBCHEM_XLOGP3_AA>
-10.1

> <PUBCHEM_EXACT_MASS>
766.05237753

> <PUBCHEM_MOLECULAR_FORMULA>
C20H33O25P3-6

> <PUBCHEM_MOLECULAR_WEIGHT>
766.4

> <PUBCHEM_OPENEYE_CAN_SMILES>
COC1C(OC(C(C1O)O)OC2C(OC(C(C2O)O)OC3C(OC(C(C3O)O)OC)COP(=O)([O-])[O-])COP(=O)([O-])[O-])COP(=O)([O-])[O-]

> <PUBCHEM_OPENEYE_ISO_SMILES>
CO[C@@H]1[C@H](O[C@H]([C@@H]([C@H]1O)O)O[C@@H]2[C@H](O[C@H]([C@@H]([C@H]2O)O)O[C@@H]3[C@H](O[C@H]([C@@H]([C@H]3O)O)OC)COP(=O)([O-])[O-])COP(=O)([O-])[O-])COP(=O)([O-])[O-]

> <PUBCHEM_CACTVS_TPSA>
403

> <PUBCHEM_MONOISOTOPIC_WEIGHT>
766.05237753

> <PUBCHEM_TOTAL_CHARGE>
-6

> <PUBCHEM_HEAVY_ATOM_COUNT>
48

> <PUBCHEM_ATOM_DEF_STEREO_COUNT>
15

> <PUBCHEM_ATOM_UDEF_STEREO_COUNT>
0

> <PUBCHEM_BOND_DEF_STEREO_COUNT>
0

> <PUBCHEM_BOND_UDEF_STEREO_COUNT>
0

> <PUBCHEM_ISOTOPIC_ATOM_COUNT>
0

> <PUBCHEM_COMPONENT_COUNT>
1

> <PUBCHEM_CACTVS_TAUTO_COUNT>
-1

> <PUBCHEM_COORDINATE_TYPE>
1
5
255

> <PUBCHEM_BONDANNOTATIONS>
32  10  6
40  11  5
36  12  5
37  13  5
39  14  6
42  15  6
44  17  5
31  43  5
38  45  5
41  46  6
29  5  6
35  5  6
33  6  5
34  6  6
30  9  5

$$$$
