9002
  -OEChem-12122310102D

 22 22  0     0  0  0  0  0  0999 V2000
    4.2690    1.4050    0.0000 S   0  0  0  0  0  0  0  0  0  0  0  0
    6.0010   -1.5950    0.0000 S   0  0  0  0  0  0  0  0  0  0  0  0
    2.5369    0.4050    0.0000 O   0  0  0  0  0  0  0  0  0  0  0  0
    2.5369   -1.5950    0.0000 O   0  0  0  0  0  0  0  0  0  0  0  0
    4.2690    2.4050    0.0000 O   0  0  0  0  0  0  0  0  0  0  0  0
    6.8671   -2.0950    0.0000 O   0  0  0  0  0  0  0  0  0  0  0  0
    5.2690    1.4050    0.0000 O   0  0  0  0  0  0  0  0  0  0  0  0
    3.2690    1.4050    0.0000 O   0  0  0  0  0  0  0  0  0  0  0  0
    5.5010   -2.4610    0.0000 O   0  0  0  0  0  0  0  0  0  0  0  0
    6.5010   -0.7290    0.0000 O   0  0  0  0  0  0  0  0  0  0  0  0
    4.2690    0.4050    0.0000 C   0  0  0  0  0  0  0  0  0  0  0  0
    5.1350   -1.0950    0.0000 C   0  0  0  0  0  0  0  0  0  0  0  0
    5.1350   -0.0950    0.0000 C   0  0  0  0  0  0  0  0  0  0  0  0
    3.4030   -0.0950    0.0000 C   0  0  0  0  0  0  0  0  0  0  0  0
    4.2690   -1.5950    0.0000 C   0  0  0  0  0  0  0  0  0  0  0  0
    3.4030   -1.0950    0.0000 C   0  0  0  0  0  0  0  0  0  0  0  0
    5.6720    0.2150    0.0000 H   0  0  0  0  0  0  0  0  0  0  0  0
    4.2690   -2.2150    0.0000 H   0  0  0  0  0  0  0  0  0  0  0  0
    2.0000    0.0950    0.0000 H   0  0  0  0  0  0  0  0  0  0  0  0
    2.5369   -2.2150    0.0000 H   0  0  0  0  0  0  0  0  0  0  0  0
    4.8059    2.7150    0.0000 H   0  0  0  0  0  0  0  0  0  0  0  0
    6.8671   -2.7150    0.0000 H   0  0  0  0  0  0  0  0  0  0  0  0
  1  5  1  0  0  0  0
  1  7  2  0  0  0  0
  1  8  2  0  0  0  0
  1 11  1  0  0  0  0
  2  6  1  0  0  0  0
  2  9  2  0  0  0  0
  2 10  2  0  0  0  0
  2 12  1  0  0  0  0
  3 14  1  0  0  0  0
  3 19  1  0  0  0  0
  4 16  1  0  0  0  0
  4 20  1  0  0  0  0
  5 21  1  0  0  0  0
  6 22  1  0  0  0  0
 11 13  2  0  0  0  0
 11 14  1  0  0  0  0
 12 13  1  0  0  0  0
 12 15  2  0  0  0  0
 13 17  1  0  0  0  0
 14 16  2  0  0  0  0
 15 16  1  0  0  0  0
 15 18  1  0  0  0  0
M  END
> <PUBCHEM_COMPOUND_CID>
9002

> <PUBCHEM_COMPOUND_CANONICALIZED>
1

> <PUBCHEM_CACTVS_COMPLEXITY>
440

> <PUBCHEM_CACTVS_HBOND_ACCEPTOR>
8

> <PUBCHEM_CACTVS_HBOND_DONOR>
4

> <PUBCHEM_CACTVS_ROTATABLE_BOND>
2

> <PUBCHEM_CACTVS_SUBSKEYS>
AAADcYBgPABgAAAAAAAAAAAAAAAAAAAAAAAwAAAAAAAAAAABAAAAGgQACAAACASA0AAwB4AAAoKAACBCAHBCAEAgIAAAiBoGiIgJJiKCERKAcAEkwBEJmAeAQAAAAIAABEAAYAABAAAIgADAAAAAAAAAAA==

> <PUBCHEM_IUPAC_OPENEYE_NAME>
4,5-dihydroxybenzene-1,3-disulfonic acid

> <PUBCHEM_IUPAC_CAS_NAME>
4,5-dihydroxybenzene-1,3-disulfonic acid

> <PUBCHEM_IUPAC_NAME_MARKUP>
4,5-dihydroxybenzene-1,3-disulfonic acid

> <PUBCHEM_IUPAC_NAME>
4,5-dihydroxybenzene-1,3-disulfonic acid

> <PUBCHEM_IUPAC_SYSTEMATIC_NAME>
4,5-bis(oxidanyl)benzene-1,3-disulfonic acid

> <PUBCHEM_IUPAC_TRADITIONAL_NAME>
4,5-dihydroxybenzene-1,3-disulfonic acid

> <PUBCHEM_IUPAC_INCHI>
InChI=1S/C6H6O8S2/c7-4-1-3(15(9,10)11)2-5(6(4)8)16(12,13)14/h1-2,7-8H,(H,9,10,11)(H,12,13,14)

> <PUBCHEM_IUPAC_INCHIKEY>
XXAXVMUWHZHZMJ-UHFFFAOYSA-N

> <PUBCHEM_XLOGP3_AA>
-0.7

> <PUBCHEM_EXACT_MASS>
269.95040949

> <PUBCHEM_MOLECULAR_FORMULA>
C6H6O8S2

> <PUBCHEM_MOLECULAR_WEIGHT>
270.2

> <PUBCHEM_OPENEYE_CAN_SMILES>
C1=C(C=C(C(=C1O)O)S(=O)(=O)O)S(=O)(=O)O

> <PUBCHEM_OPENEYE_ISO_SMILES>
C1=C(C=C(C(=C1O)O)S(=O)(=O)O)S(=O)(=O)O

> <PUBCHEM_CACTVS_TPSA>
166

> <PUBCHEM_MONOISOTOPIC_WEIGHT>
269.95040949

> <PUBCHEM_TOTAL_CHARGE>
0

> <PUBCHEM_HEAVY_ATOM_COUNT>
16

> <PUBCHEM_ATOM_DEF_STEREO_COUNT>
0

> <PUBCHEM_ATOM_UDEF_STEREO_COUNT>
0

> <PUBCHEM_BOND_DEF_STEREO_COUNT>
0

> <PUBCHEM_BOND_UDEF_STEREO_COUNT>
0

> <PUBCHEM_ISOTOPIC_ATOM_COUNT>
0

> <PUBCHEM_COMPONENT_COUNT>
1

> <PUBCHEM_CACTVS_TAUTO_COUNT>
8

> <PUBCHEM_COORDINATE_TYPE>
1
5
255

> <PUBCHEM_BONDANNOTATIONS>
11  13  8
11  14  8
12  13  8
12  15  8
14  16  8
15  16  8

$$$$
