75007581
  -OEChem-12122310102D

162170  0     1  0  0  0  0  0999 V2000
   12.8622   -0.3315    0.0000 N   0  0  0  0  0  0  0  0  0  0  0  0
   14.7289    0.7463    0.0000 N   0  0  0  0  0  0  0  0  0  0  0  0
   11.1309    2.8226    0.0000 C   0  0  3  0  0  0  0  0  0  0  0  0
   16.7618   -2.5916    0.0000 C   0  0  3  0  0  0  0  0  0  0  0  0
   10.2370    4.3573    0.0000 C   0  0  3  0  0  0  0  0  0  0  0  0
   17.8280   -4.3900    0.0000 C   0  0  3  0  0  0  0  0  0  0  0  0
   11.1309    3.8226    0.0000 C   0  0  3  0  0  0  0  0  0  0  0  0
   16.7709   -3.7688    0.0000 C   0  0  3  0  0  0  0  0  0  0  0  0
    9.3309    3.8435    0.0000 C   0  0  3  0  0  0  0  0  0  0  0  0
   18.8900   -3.7769    0.0000 C   0  0  3  0  0  0  0  0  0  0  0  0
   11.9970    2.3226    0.0000 C   0  0  3  0  0  0  0  0  0  0  0  0
   15.7333   -2.0188    0.0000 C   0  0  3  0  0  0  0  0  0  0  0  0
   12.8630    2.8226    0.0000 C   0  0  3  0  0  0  0  0  0  0  0  0
   14.7546   -2.5838    0.0000 C   0  0  3  0  0  0  0  0  0  0  0  0
   10.2370    2.2880    0.0000 C   0  0  0  0  0  0  0  0  0  0  0  0
   17.8093   -1.9541    0.0000 C   0  0  0  0  0  0  0  0  0  0  0  0
    9.3309    2.8018    0.0000 C   0  0  0  0  0  0  0  0  0  0  0  0
   18.8805   -2.5507    0.0000 C   0  0  0  0  0  0  0  0  0  0  0  0
    8.5686    4.5442    0.0000 C   0  0  3  0  0  0  0  0  0  0  0  0
   19.7937   -4.5949    0.0000 C   0  0  3  0  0  0  0  0  0  0  0  0
   11.9970    4.3226    0.0000 C   0  0  0  0  0  0  0  0  0  0  0  0
   15.7514   -4.3574    0.0000 C   0  0  0  0  0  0  0  0  0  0  0  0
   10.0269    5.3712    0.0000 C   0  0  0  0  0  0  0  0  0  0  0  0
   18.0846   -5.5817    0.0000 C   0  0  0  0  0  0  0  0  0  0  0  0
   12.8630    3.8226    0.0000 C   0  0  0  0  0  0  0  0  0  0  0  0
   14.7364   -3.7609    0.0000 C   0  0  0  0  0  0  0  0  0  0  0  0
    8.9979    5.4865    0.0000 C   0  0  0  0  0  0  0  0  0  0  0  0
   19.2970   -5.7081    0.0000 C   0  0  0  0  0  0  0  0  0  0  0  0
   11.9809    1.2811    0.0000 C   0  0  0  0  0  0  0  0  0  0  0  0
   15.7246   -0.8886    0.0000 C   0  0  0  0  0  0  0  0  0  0  0  0
   10.7890    1.8829    0.0000 C   0  0  0  0  0  0  0  0  0  0  0  0
   17.0965   -1.6493    0.0000 C   0  0  0  0  0  0  0  0  0  0  0  0
   11.1069    4.8506    0.0000 C   0  0  0  0  0  0  0  0  0  0  0  0
   16.9620   -4.8900    0.0000 C   0  0  0  0  0  0  0  0  0  0  0  0
   13.7730    2.3158    0.0000 C   0  0  0  0  0  0  0  0  0  0  0  0
   13.7802   -2.0112    0.0000 C   0  0  0  0  0  0  0  0  0  0  0  0
    8.4611    3.3502    0.0000 C   0  0  0  0  0  0  0  0  0  0  0  0
   19.7560   -3.2769    0.0000 C   0  0  0  0  0  0  0  0  0  0  0  0
   11.3541    1.5566    0.0000 C   0  0  0  0  0  0  0  0  0  0  0  0
   16.3761   -1.2527    0.0000 C   0  0  0  0  0  0  0  0  0  0  0  0
   13.7290    3.3226    0.0000 C   0  0  0  0  0  0  0  0  0  0  0  0
   13.8886   -3.0838    0.0000 C   0  0  0  0  0  0  0  0  0  0  0  0
   12.8789    0.7534    0.0000 C   0  0  0  0  0  0  0  0  0  0  0  0
   14.7373   -0.3387    0.0000 C   0  0  0  0  0  0  0  0  0  0  0  0
    7.5885    4.3456    0.0000 C   0  0  0  0  0  0  0  0  0  0  0  0
   20.7722   -4.3887    0.0000 C   0  0  0  0  0  0  0  0  0  0  0  0
   13.7810    1.2742    0.0000 C   0  0  0  0  0  0  0  0  0  0  0  0
   13.7976   -0.8812    0.0000 C   0  0  0  0  0  0  0  0  0  0  0  0
    6.9265    5.0950    0.0000 C   0  0  0  0  0  0  0  0  0  0  0  0
   21.4401   -5.1330    0.0000 C   0  0  0  0  0  0  0  0  0  0  0  0
    5.9464    4.8963    0.0000 C   0  0  0  0  0  0  0  0  0  0  0  0
   22.4186   -4.9268    0.0000 C   0  0  0  0  0  0  0  0  0  0  0  0
    5.2843    5.6457    0.0000 C   0  0  0  0  0  0  0  0  0  0  0  0
   23.0864   -5.6711    0.0000 C   0  0  0  0  0  0  0  0  0  0  0  0
    4.3042    5.4471    0.0000 C   0  0  0  0  0  0  0  0  0  0  0  0
   24.0649   -5.4649    0.0000 C   0  0  0  0  0  0  0  0  0  0  0  0
    3.6422    6.1965    0.0000 C   0  0  0  0  0  0  0  0  0  0  0  0
   24.7328   -6.2092    0.0000 C   0  0  0  0  0  0  0  0  0  0  0  0
    2.6621    5.9978    0.0000 C   0  0  0  0  0  0  0  0  0  0  0  0
   25.7113   -6.0030    0.0000 C   0  0  0  0  0  0  0  0  0  0  0  0
    2.0000    6.7472    0.0000 C   0  0  0  0  0  0  0  0  0  0  0  0
   26.3791   -6.7472    0.0000 C   0  0  0  0  0  0  0  0  0  0  0  0
   11.6679    3.5126    0.0000 H   0  0  0  0  0  0  0  0  0  0  0  0
   16.7685   -4.3888    0.0000 H   0  0  0  0  0  0  0  0  0  0  0  0
    9.8434    1.8090    0.0000 H   0  0  0  0  0  0  0  0  0  0  0  0
   10.6416    1.8182    0.0000 H   0  0  0  0  0  0  0  0  0  0  0  0
   18.1992   -1.4720    0.0000 H   0  0  0  0  0  0  0  0  0  0  0  0
   17.4010   -1.4874    0.0000 H   0  0  0  0  0  0  0  0  0  0  0  0
    8.7201    2.9079    0.0000 H   0  0  0  0  0  0  0  0  0  0  0  0
    9.1219    2.2181    0.0000 H   0  0  0  0  0  0  0  0  0  0  0  0
   19.4922   -2.6521    0.0000 H   0  0  0  0  0  0  0  0  0  0  0  0
   19.0851   -1.9655    0.0000 H   0  0  0  0  0  0  0  0  0  0  0  0
    8.1828    5.0295    0.0000 H   0  0  0  0  0  0  0  0  0  0  0  0
   19.9555   -3.9964    0.0000 H   0  0  0  0  0  0  0  0  0  0  0  0
   12.3955    4.7976    0.0000 H   0  0  0  0  0  0  0  0  0  0  0  0
   11.5984    4.7976    0.0000 H   0  0  0  0  0  0  0  0  0  0  0  0
   15.3504   -4.8303    0.0000 H   0  0  0  0  0  0  0  0  0  0  0  0
   16.1487   -4.8333    0.0000 H   0  0  0  0  0  0  0  0  0  0  0  0
   10.6439    5.4325    0.0000 H   0  0  0  0  0  0  0  0  0  0  0  0
   10.0308    5.9912    0.0000 H   0  0  0  0  0  0  0  0  0  0  0  0
   17.4681   -5.6478    0.0000 H   0  0  0  0  0  0  0  0  0  0  0  0
   18.0855   -6.2017    0.0000 H   0  0  0  0  0  0  0  0  0  0  0  0
   13.4736    3.7150    0.0000 H   0  0  0  0  0  0  0  0  0  0  0  0
   13.0750    4.4053    0.0000 H   0  0  0  0  0  0  0  0  0  0  0  0
   14.1273   -3.6454    0.0000 H   0  0  0  0  0  0  0  0  0  0  0  0
   14.5184   -4.3413    0.0000 H   0  0  0  0  0  0  0  0  0  0  0  0
    9.1313    6.0920    0.0000 H   0  0  0  0  0  0  0  0  0  0  0  0
    8.4098    5.6828    0.0000 H   0  0  0  0  0  0  0  0  0  0  0  0
   19.1682   -6.3146    0.0000 H   0  0  0  0  0  0  0  0  0  0  0  0
   19.8866   -5.8998    0.0000 H   0  0  0  0  0  0  0  0  0  0  0  0
   11.3718    1.3966    0.0000 H   0  0  0  0  0  0  0  0  0  0  0  0
   11.7629    0.7007    0.0000 H   0  0  0  0  0  0  0  0  0  0  0  0
   16.3363   -0.9900    0.0000 H   0  0  0  0  0  0  0  0  0  0  0  0
   15.9292   -0.3033    0.0000 H   0  0  0  0  0  0  0  0  0  0  0  0
   10.2064    2.0949    0.0000 H   0  0  0  0  0  0  0  0  0  0  0  0
   10.5770    1.3003    0.0000 H   0  0  0  0  0  0  0  0  0  0  0  0
   11.3716    1.6709    0.0000 H   0  0  0  0  0  0  0  0  0  0  0  0
   17.6808   -1.8568    0.0000 H   0  0  0  0  0  0  0  0  0  0  0  0
   17.3041   -1.0650    0.0000 H   0  0  0  0  0  0  0  0  0  0  0  0
   16.5123   -1.4417    0.0000 H   0  0  0  0  0  0  0  0  0  0  0  0
   11.4127    4.3113    0.0000 H   0  0  0  0  0  0  0  0  0  0  0  0
   11.6462    5.1565    0.0000 H   0  0  0  0  0  0  0  0  0  0  0  0
   10.8010    5.3899    0.0000 H   0  0  0  0  0  0  0  0  0  0  0  0
   16.6520   -4.3531    0.0000 H   0  0  0  0  0  0  0  0  0  0  0  0
   16.4251   -5.2000    0.0000 H   0  0  0  0  0  0  0  0  0  0  0  0
   17.2720   -5.4270    0.0000 H   0  0  0  0  0  0  0  0  0  0  0  0
   14.3846    2.2144    0.0000 H   0  0  0  0  0  0  0  0  0  0  0  0
   13.9775    2.9011    0.0000 H   0  0  0  0  0  0  0  0  0  0  0  0
   13.1711   -1.8957    0.0000 H   0  0  0  0  0  0  0  0  0  0  0  0
   13.5622   -2.5916    0.0000 H   0  0  0  0  0  0  0  0  0  0  0  0
    8.1552    3.8895    0.0000 H   0  0  0  0  0  0  0  0  0  0  0  0
    7.9218    3.0443    0.0000 H   0  0  0  0  0  0  0  0  0  0  0  0
    8.7669    2.8108    0.0000 H   0  0  0  0  0  0  0  0  0  0  0  0
   20.0660   -3.8139    0.0000 H   0  0  0  0  0  0  0  0  0  0  0  0
   20.2929   -2.9669    0.0000 H   0  0  0  0  0  0  0  0  0  0  0  0
   19.4460   -2.7400    0.0000 H   0  0  0  0  0  0  0  0  0  0  0  0
   10.8792    1.9552    0.0000 H   0  0  0  0  0  0  0  0  0  0  0  0
   10.9556    1.0817    0.0000 H   0  0  0  0  0  0  0  0  0  0  0  0
   11.8291    1.1581    0.0000 H   0  0  0  0  0  0  0  0  0  0  0  0
   16.8511   -1.6512    0.0000 H   0  0  0  0  0  0  0  0  0  0  0  0
   16.7746   -0.7778    0.0000 H   0  0  0  0  0  0  0  0  0  0  0  0
   15.9012   -0.8542    0.0000 H   0  0  0  0  0  0  0  0  0  0  0  0
   14.0390    2.7857    0.0000 H   0  0  0  0  0  0  0  0  0  0  0  0
   14.2660    3.6326    0.0000 H   0  0  0  0  0  0  0  0  0  0  0  0
   13.4190    3.8596    0.0000 H   0  0  0  0  0  0  0  0  0  0  0  0
   13.5786   -2.5469    0.0000 H   0  0  0  0  0  0  0  0  0  0  0  0
   13.3516   -3.3938    0.0000 H   0  0  0  0  0  0  0  0  0  0  0  0
   14.1986   -3.6208    0.0000 H   0  0  0  0  0  0  0  0  0  0  0  0
    7.0597    4.0220    0.0000 H   0  0  0  0  0  0  0  0  0  0  0  0
    7.8154    3.7685    0.0000 H   0  0  0  0  0  0  0  0  0  0  0  0
   21.2986   -4.0611    0.0000 H   0  0  0  0  0  0  0  0  0  0  0  0
   20.5410   -3.8134    0.0000 H   0  0  0  0  0  0  0  0  0  0  0  0
    7.4553    5.4186    0.0000 H   0  0  0  0  0  0  0  0  0  0  0  0
    6.6996    5.6720    0.0000 H   0  0  0  0  0  0  0  0  0  0  0  0
   20.9137   -5.4606    0.0000 H   0  0  0  0  0  0  0  0  0  0  0  0
   21.6713   -5.7083    0.0000 H   0  0  0  0  0  0  0  0  0  0  0  0
    5.4175    4.5727    0.0000 H   0  0  0  0  0  0  0  0  0  0  0  0
    6.1732    4.3193    0.0000 H   0  0  0  0  0  0  0  0  0  0  0  0
   22.9449   -4.5991    0.0000 H   0  0  0  0  0  0  0  0  0  0  0  0
   22.1873   -4.3515    0.0000 H   0  0  0  0  0  0  0  0  0  0  0  0
    5.8132    5.9693    0.0000 H   0  0  0  0  0  0  0  0  0  0  0  0
    5.0575    6.2228    0.0000 H   0  0  0  0  0  0  0  0  0  0  0  0
   22.5601   -5.9987    0.0000 H   0  0  0  0  0  0  0  0  0  0  0  0
   23.3177   -6.2463    0.0000 H   0  0  0  0  0  0  0  0  0  0  0  0
    3.7754    5.1235    0.0000 H   0  0  0  0  0  0  0  0  0  0  0  0
    4.5311    4.8700    0.0000 H   0  0  0  0  0  0  0  0  0  0  0  0
   24.5913   -5.1372    0.0000 H   0  0  0  0  0  0  0  0  0  0  0  0
   23.8337   -4.8896    0.0000 H   0  0  0  0  0  0  0  0  0  0  0  0
    4.1710    6.5201    0.0000 H   0  0  0  0  0  0  0  0  0  0  0  0
    3.4153    6.7735    0.0000 H   0  0  0  0  0  0  0  0  0  0  0  0
   24.2064   -6.5368    0.0000 H   0  0  0  0  0  0  0  0  0  0  0  0
   24.9640   -6.7844    0.0000 H   0  0  0  0  0  0  0  0  0  0  0  0
    2.1332    5.6742    0.0000 H   0  0  0  0  0  0  0  0  0  0  0  0
    2.8889    5.4208    0.0000 H   0  0  0  0  0  0  0  0  0  0  0  0
   26.2376   -5.6753    0.0000 H   0  0  0  0  0  0  0  0  0  0  0  0
   25.4800   -5.4277    0.0000 H   0  0  0  0  0  0  0  0  0  0  0  0
    2.4646    7.1577    0.0000 H   0  0  0  0  0  0  0  0  0  0  0  0
    1.5895    7.2119    0.0000 H   0  0  0  0  0  0  0  0  0  0  0  0
    1.5354    6.3368    0.0000 H   0  0  0  0  0  0  0  0  0  0  0  0
   25.9177   -7.1613    0.0000 H   0  0  0  0  0  0  0  0  0  0  0  0
   26.7932   -7.2087    0.0000 H   0  0  0  0  0  0  0  0  0  0  0  0
   26.8406   -6.3332    0.0000 H   0  0  0  0  0  0  0  0  0  0  0  0
  1 43  2  0  0  0  0
  1 48  1  0  0  0  0
  2 44  1  0  0  0  0
  2 47  2  0  0  0  0
  3  7  1  0  0  0  0
  3 11  1  0  0  0  0
  3 15  1  0  0  0  0
  3 31  1  0  0  0  0
  4  8  1  0  0  0  0
  4 12  1  0  0  0  0
  4 16  1  0  0  0  0
  4 32  1  0  0  0  0
  5  7  1  0  0  0  0
  5  9  1  0  0  0  0
  5 23  1  0  0  0  0
  5 33  1  0  0  0  0
  6  8  1  0  0  0  0
  6 10  1  0  0  0  0
  6 24  1  0  0  0  0
  6 34  1  0  0  0  0
  7 21  1  0  0  0  0
  7 63  1  0  0  0  0
  8 22  1  0  0  0  0
  8 64  1  0  0  0  0
  9 17  1  0  0  0  0
  9 19  1  0  0  0  0
  9 37  1  0  0  0  0
 10 18  1  0  0  0  0
 10 20  1  0  0  0  0
 10 38  1  0  0  0  0
 11 13  1  0  0  0  0
 11 29  1  0  0  0  0
 11 39  1  0  0  0  0
 12 14  1  0  0  0  0
 12 30  1  0  0  0  0
 12 40  1  0  0  0  0
 13 25  1  0  0  0  0
 13 35  1  0  0  0  0
 13 41  1  0  0  0  0
 14 26  1  0  0  0  0
 14 36  1  0  0  0  0
 14 42  1  0  0  0  0
 15 17  1  0  0  0  0
 15 65  1  0  0  0  0
 15 66  1  0  0  0  0
 16 18  1  0  0  0  0
 16 67  1  0  0  0  0
 16 68  1  0  0  0  0
 17 69  1  0  0  0  0
 17 70  1  0  0  0  0
 18 71  1  0  0  0  0
 18 72  1  0  0  0  0
 19 27  1  0  0  0  0
 19 45  1  0  0  0  0
 19 73  1  0  0  0  0
 20 28  1  0  0  0  0
 20 46  1  0  0  0  0
 20 74  1  0  0  0  0
 21 25  1  0  0  0  0
 21 75  1  0  0  0  0
 21 76  1  0  0  0  0
 22 26  1  0  0  0  0
 22 77  1  0  0  0  0
 22 78  1  0  0  0  0
 23 27  1  0  0  0  0
 23 79  1  0  0  0  0
 23 80  1  0  0  0  0
 24 28  1  0  0  0  0
 24 81  1  0  0  0  0
 24 82  1  0  0  0  0
 25 83  1  0  0  0  0
 25 84  1  0  0  0  0
 26 85  1  0  0  0  0
 26 86  1  0  0  0  0
 27 87  1  0  0  0  0
 27 88  1  0  0  0  0
 28 89  1  0  0  0  0
 28 90  1  0  0  0  0
 29 43  1  0  0  0  0
 29 91  1  0  0  0  0
 29 92  1  0  0  0  0
 30 44  1  0  0  0  0
 30 93  1  0  0  0  0
 30 94  1  0  0  0  0
 31 95  1  0  0  0  0
 31 96  1  0  0  0  0
 31 97  1  0  0  0  0
 32 98  1  0  0  0  0
 32 99  1  0  0  0  0
 32100  1  0  0  0  0
 33101  1  0  0  0  0
 33102  1  0  0  0  0
 33103  1  0  0  0  0
 34104  1  0  0  0  0
 34105  1  0  0  0  0
 34106  1  0  0  0  0
 35 47  1  0  0  0  0
 35107  1  0  0  0  0
 35108  1  0  0  0  0
 36 48  1  0  0  0  0
 36109  1  0  0  0  0
 36110  1  0  0  0  0
 37111  1  0  0  0  0
 37112  1  0  0  0  0
 37113  1  0  0  0  0
 38114  1  0  0  0  0
 38115  1  0  0  0  0
 38116  1  0  0  0  0
 39117  1  0  0  0  0
 39118  1  0  0  0  0
 39119  1  0  0  0  0
 40120  1  0  0  0  0
 40121  1  0  0  0  0
 40122  1  0  0  0  0
 41123  1  0  0  0  0
 41124  1  0  0  0  0
 41125  1  0  0  0  0
 42126  1  0  0  0  0
 42127  1  0  0  0  0
 42128  1  0  0  0  0
 43 47  1  0  0  0  0
 44 48  2  0  0  0  0
 45 49  1  0  0  0  0
 45129  1  0  0  0  0
 45130  1  0  0  0  0
 46 50  1  0  0  0  0
 46131  1  0  0  0  0
 46132  1  0  0  0  0
 49 51  1  0  0  0  0
 49133  1  0  0  0  0
 49134  1  0  0  0  0
 50 52  1  0  0  0  0
 50135  1  0  0  0  0
 50136  1  0  0  0  0
 51 53  1  0  0  0  0
 51137  1  0  0  0  0
 51138  1  0  0  0  0
 52 54  1  0  0  0  0
 52139  1  0  0  0  0
 52140  1  0  0  0  0
 53 55  1  0  0  0  0
 53141  1  0  0  0  0
 53142  1  0  0  0  0
 54 56  1  0  0  0  0
 54143  1  0  0  0  0
 54144  1  0  0  0  0
 55 57  1  0  0  0  0
 55145  1  0  0  0  0
 55146  1  0  0  0  0
 56 58  1  0  0  0  0
 56147  1  0  0  0  0
 56148  1  0  0  0  0
 57 59  1  0  0  0  0
 57149  1  0  0  0  0
 57150  1  0  0  0  0
 58 60  1  0  0  0  0
 58151  1  0  0  0  0
 58152  1  0  0  0  0
 59 61  1  0  0  0  0
 59153  1  0  0  0  0
 59154  1  0  0  0  0
 60 62  1  0  0  0  0
 60155  1  0  0  0  0
 60156  1  0  0  0  0
 61157  1  0  0  0  0
 61158  1  0  0  0  0
 61159  1  0  0  0  0
 62160  1  0  0  0  0
 62161  1  0  0  0  0
 62162  1  0  0  0  0
M  END
> <PUBCHEM_COMPOUND_CID>
75007581

> <PUBCHEM_COMPOUND_CANONICALIZED>
1

> <PUBCHEM_CACTVS_COMPLEXITY>
1490

> <PUBCHEM_CACTVS_HBOND_ACCEPTOR>
2

> <PUBCHEM_CACTVS_HBOND_DONOR>
0

> <PUBCHEM_CACTVS_ROTATABLE_BOND>
14

> <PUBCHEM_CACTVS_SUBSKEYS>
AAADcfB/AAAAAAAAAAAAAAAAAAAAAYMAAAA8YMGDAAAAAGDxgAAAHAAAAAAADwiBFgACgBIIEACgAQRgRAAAgCQhECAAGAAwUAgAYEJAkACUAAAggADISAMQgMAPgAAAAAAAAACQAASAACAAQQAACAAAAA==

> <PUBCHEM_IUPAC_OPENEYE_NAME>
5,6,9,13,17,23,24,27,31,35-decamethyl-10,28-dioctyl-2,20-diazanonacyclo[19.15.0.03,19.05,17.06,14.09,13.023,35.024,32.027,31]hexatriaconta-1(21),2,19-triene

> <PUBCHEM_IUPAC_CAS_NAME>
5,6,9,13,17,23,24,27,31,35-decamethyl-10,28-dioctyl-2,20-diazanonacyclo[19.15.0.03,19.05,17.06,14.09,13.023,35.024,32.027,31]hexatriaconta-1(21),2,19-triene

> <PUBCHEM_IUPAC_NAME_MARKUP>
5,6,9,13,17,23,24,27,31,35-decamethyl-10,28-dioctyl-2,20-diazanonacyclo[19.15.0.0<SUP>3,19</SUP>.0<SUP>5,17</SUP>.0<SUP>6,14</SUP>.0<SUP>9,13</SUP>.0<SUP>23,35</SUP>.0<SUP>24,32</SUP>.0<SUP>27,31</SUP>]hexatriaconta-1(21),2,19-triene

> <PUBCHEM_IUPAC_NAME>
5,6,9,13,17,23,24,27,31,35-decamethyl-10,28-dioctyl-2,20-diazanonacyclo[19.15.0.03,19.05,17.06,14.09,13.023,35.024,32.027,31]hexatriaconta-1(21),2,19-triene

> <PUBCHEM_IUPAC_SYSTEMATIC_NAME>
5,6,9,13,17,23,24,27,31,35-decamethyl-10,28-dioctyl-2,20-diazanonacyclo[19.15.0.03,19.05,17.06,14.09,13.023,35.024,32.027,31]hexatriaconta-1(21),2,19-triene

> <PUBCHEM_IUPAC_TRADITIONAL_NAME>
5,6,9,13,17,23,24,27,31,35-decamethyl-10,28-dioctyl-2,20-diazanonacyclo[19.15.0.03,19.05,17.06,14.09,13.023,35.024,32.027,31]hexatriaconta-1(21),2,19-triene

> <PUBCHEM_IUPAC_INCHI>
InChI=1S/C60H100N2/c1-13-15-17-19-21-23-25-43-27-33-55(7)49-29-31-51(3)39-45-47(41-59(51,11)57(49,9)37-35-53(43,55)5)61-46-40-52(4)32-30-50-56(8)34-28-44(26-24-22-20-18-16-14-2)54(56,6)36-38-58(50,10)60(52,12)42-48(46)62-45/h43-44,49-50H,13-42H2,1-12H3

> <PUBCHEM_IUPAC_INCHIKEY>
YRQNKMKHABXEJZ-UHFFFAOYSA-N

> <PUBCHEM_XLOGP3_AA>
21.9

> <PUBCHEM_EXACT_MASS>
848.78865120

> <PUBCHEM_MOLECULAR_FORMULA>
C60H100N2

> <PUBCHEM_MOLECULAR_WEIGHT>
849.4

> <PUBCHEM_OPENEYE_CAN_SMILES>
CCCCCCCCC1CCC2(C1(CCC3(C2CCC4(C3(CC5=C(C4)N=C6CC7(C(CCC8C7(CCC9(C8(CCC9CCCCCCCC)C)C)C)(CC6=N5)C)C)C)C)C)C)C

> <PUBCHEM_OPENEYE_ISO_SMILES>
CCCCCCCCC1CCC2(C1(CCC3(C2CCC4(C3(CC5=C(C4)N=C6CC7(C(CCC8C7(CCC9(C8(CCC9CCCCCCCC)C)C)C)(CC6=N5)C)C)C)C)C)C)C

> <PUBCHEM_CACTVS_TPSA>
25.8

> <PUBCHEM_MONOISOTOPIC_WEIGHT>
848.78865120

> <PUBCHEM_TOTAL_CHARGE>
0

> <PUBCHEM_HEAVY_ATOM_COUNT>
62

> <PUBCHEM_ATOM_DEF_STEREO_COUNT>
0

> <PUBCHEM_ATOM_UDEF_STEREO_COUNT>
14

> <PUBCHEM_BOND_DEF_STEREO_COUNT>
0

> <PUBCHEM_BOND_UDEF_STEREO_COUNT>
0

> <PUBCHEM_ISOTOPIC_ATOM_COUNT>
0

> <PUBCHEM_COMPONENT_COUNT>
1

> <PUBCHEM_CACTVS_TAUTO_COUNT>
-1

> <PUBCHEM_COORDINATE_TYPE>
1
5
255

> <PUBCHEM_BONDANNOTATIONS>
1  43  8
1  48  8
10  38  3
11  39  3
12  40  3
13  41  3
14  42  3
19  45  3
2  44  8
2  47  8
20  46  3
3  31  3
4  32  3
43  47  8
44  48  8
5  33  3
6  34  3
7  21  3
8  22  3
9  37  3

$$$$
