124220636
  -OEChem-12122310272D

189193  0     1  0  0  0  0  0999 V2000
    2.0000    2.0995    0.0000 Cu  1  2  0  0  0  0  0  0  0  0  0  0
   12.2670    0.1550    0.0000 S   0  0  0  0  0  0  0  0  0  0  0  0
   11.4009   -0.3450    0.0000 S   0  0  0  0  0  0  0  0  0  0  0  0
   10.5349    3.1550    0.0000 O   0  0  0  0  0  0  0  0  0  0  0  0
    9.4197    2.0500    0.0000 O   0  0  0  0  0  0  0  0  0  0  0  0
    9.6458    0.3328    0.0000 O   0  0  0  0  0  0  0  0  0  0  0  0
    4.7446    7.3545    0.0000 O   0  5  0  0  0  0  0  0  0  0  0  0
    4.5186    5.6373    0.0000 O   0  0  0  0  0  0  0  0  0  0  0  0
    2.7071    2.8066    0.0000 O   0  5  0  0  0  0  0  0  0  0  0  0
    3.9318    1.5819    0.0000 O   0  0  0  0  0  0  0  0  0  0  0  0
   14.8650   -1.3450    0.0000 O   0  0  0  0  0  0  0  0  0  0  0  0
   13.9990   -1.8450    0.0000 O   0  0  0  0  0  0  0  0  0  0  0  0
   11.4009    2.6550    0.0000 O   0  0  0  0  0  0  0  0  0  0  0  0
   14.8650   -0.3450    0.0000 O   0  0  0  0  0  0  0  0  0  0  0  0
   13.1330   -1.3450    0.0000 O   0  0  0  0  0  0  0  0  0  0  0  0
   13.9990    0.1550    0.0000 O   0  0  0  0  0  0  0  0  0  0  0  0
   11.4009   -4.3450    0.0000 O   0  0  0  0  0  0  0  0  0  0  0  0
    9.6689   -0.3450    0.0000 O   0  0  0  0  0  0  0  0  0  0  0  0
    6.2048   -1.3450    0.0000 O   0  0  0  0  0  0  0  0  0  0  0  0
   16.5971    5.6550    0.0000 O   0  0  0  0  0  0  0  0  0  0  0  0
    7.0708    0.1550    0.0000 O   0  0  0  0  0  0  0  0  0  0  0  0
    8.8029    0.1550    0.0000 O   0  0  0  0  0  0  0  0  0  0  0  0
    8.8029    4.1550    0.0000 N   0  0  3  0  0  0  0  0  0  0  0  0
    7.4368    1.7890    0.0000 N   0  0  3  0  0  0  0  0  0  0  0  0
    6.5015    5.3762    0.0000 N   0  0  3  0  0  0  0  0  0  0  0  0
    5.3461    2.9961    0.0000 N   0  0  3  0  0  0  0  0  0  0  0  0
   11.4009    4.6550    0.0000 N   0  0  0  0  0  0  0  0  0  0  0  0
   15.7311   -2.8450    0.0000 N   0  0  0  0  0  0  0  0  0  0  0  0
   16.5971   -0.3450    0.0000 N   0  0  0  0  0  0  0  0  0  0  0  0
   13.1330   -3.3450    0.0000 N   0  0  0  0  0  0  0  0  0  0  0  0
   13.1330    2.6550    0.0000 N   0  0  0  0  0  0  0  0  0  0  0  0
   14.8650    1.6550    0.0000 N   0  0  0  0  0  0  0  0  0  0  0  0
   19.4040   -0.1471    0.0000 N   0  0  0  0  0  0  0  0  0  0  0  0
   10.5349   -2.8450    0.0000 N   0  0  0  0  0  0  0  0  0  0  0  0
   16.5971   -7.3450    0.0000 N   0  0  0  0  0  0  0  0  0  0  0  0
    8.8029   -1.8450    0.0000 N   0  0  0  0  0  0  0  0  0  0  0  0
    8.8029    3.1550    0.0000 C   0  0  0  0  0  0  0  0  0  0  0  0
    7.9368    4.6550    0.0000 C   0  0  0  0  0  0  0  0  0  0  0  0
    7.9368    2.6550    0.0000 C   0  0  0  0  0  0  0  0  0  0  0  0
    7.5015    5.3762    0.0000 C   0  0  0  0  0  0  0  0  0  0  0  0
    6.4709    1.5302    0.0000 C   0  0  0  0  0  0  0  0  0  0  0  0
    5.7944    4.6691    0.0000 C   0  0  0  0  0  0  0  0  0  0  0  0
    5.6049    2.0302    0.0000 C   0  0  0  0  0  0  0  0  0  0  0  0
    6.0532    3.7032    0.0000 C   0  0  0  0  0  0  0  0  0  0  0  0
    9.6689    4.6550    0.0000 C   0  0  0  0  0  0  0  0  0  0  0  0
    8.0456    0.9956    0.0000 C   0  0  0  0  0  0  0  0  0  0  0  0
    6.1188    6.3001    0.0000 C   0  0  0  0  0  0  0  0  0  0  0  0
    4.3801    3.2549    0.0000 C   0  0  0  0  0  0  0  0  0  0  0  0
   10.5349    4.1550    0.0000 C   0  0  0  0  0  0  0  0  0  0  0  0
   12.2670    4.1550    0.0000 C   0  0  2  0  0  0  0  0  0  0  0  0
   14.8650   -3.3450    0.0000 C   0  0  1  0  0  0  0  0  0  0  0  0
   16.5971   -1.3450    0.0000 C   0  0  2  0  0  0  0  0  0  0  0  0
   14.8650   -4.3450    0.0000 C   0  0  0  0  0  0  0  0  0  0  0  0
   17.4631   -1.8450    0.0000 C   0  0  0  0  0  0  0  0  0  0  0  0
    9.0370    1.1262    0.0000 C   0  0  0  0  0  0  0  0  0  0  0  0
    5.1273    6.4306    0.0000 C   0  0  0  0  0  0  0  0  0  0  0  0
   15.7311   -4.8450    0.0000 C   0  0  0  0  0  0  0  0  0  0  0  0
    3.6730    2.5478    0.0000 C   0  0  0  0  0  0  0  0  0  0  0  0
   13.1330    4.6550    0.0000 C   0  0  0  0  0  0  0  0  0  0  0  0
   15.7311   -1.8450    0.0000 C   0  0  0  0  0  0  0  0  0  0  0  0
   15.7311    1.1550    0.0000 C   0  0  2  0  0  0  0  0  0  0  0  0
   18.3291   -1.3450    0.0000 C   0  0  0  0  0  0  0  0  0  0  0  0
   12.2670    3.1550    0.0000 C   0  0  0  0  0  0  0  0  0  0  0  0
   13.9990   -2.8450    0.0000 C   0  0  0  0  0  0  0  0  0  0  0  0
   13.1330    1.6550    0.0000 C   0  0  2  0  0  0  0  0  0  0  0  0
   12.2670   -2.8450    0.0000 C   0  0  1  0  0  0  0  0  0  0  0  0
   15.7311   -5.8450    0.0000 C   0  0  0  0  0  0  0  0  0  0  0  0
   15.7311    0.1550    0.0000 C   0  0  0  0  0  0  0  0  0  0  0  0
   19.2369   -1.7501    0.0000 C   0  0  0  0  0  0  0  0  0  0  0  0
   16.5971    1.6550    0.0000 C   0  0  0  0  0  0  0  0  0  0  0  0
   12.2670   -1.8450    0.0000 C   0  0  1  0  0  0  0  0  0  0  0  0
   13.9990    1.1550    0.0000 C   0  0  0  0  0  0  0  0  0  0  0  0
   13.1330    5.6550    0.0000 C   0  0  0  0  0  0  0  0  0  0  0  0
   18.4322   -0.3563    0.0000 C   0  0  0  0  0  0  0  0  0  0  0  0
   19.9048   -1.0058    0.0000 C   0  0  0  0  0  0  0  0  0  0  0  0
   12.2670    1.1550    0.0000 C   0  0  0  0  0  0  0  0  0  0  0  0
   11.4009   -3.3450    0.0000 C   0  0  0  0  0  0  0  0  0  0  0  0
   16.5971   -6.3450    0.0000 C   0  0  0  0  0  0  0  0  0  0  0  0
   16.5971    2.6550    0.0000 C   0  0  0  0  0  0  0  0  0  0  0  0
   10.5349   -1.8450    0.0000 C   0  0  1  0  0  0  0  0  0  0  0  0
   19.5476   -2.7006    0.0000 C   0  0  0  0  0  0  0  0  0  0  0  0
   11.4009   -2.3450    0.0000 C   0  0  0  0  0  0  0  0  0  0  0  0
   20.8833   -1.2120    0.0000 C   0  0  0  0  0  0  0  0  0  0  0  0
   12.2670    6.1550    0.0000 C   0  0  0  0  0  0  0  0  0  0  0  0
   13.9990    6.1550    0.0000 C   0  0  0  0  0  0  0  0  0  0  0  0
   11.4009   -1.3450    0.0000 C   0  0  0  0  0  0  0  0  0  0  0  0
   20.5261   -2.9068    0.0000 C   0  0  0  0  0  0  0  0  0  0  0  0
   21.1939   -2.1626    0.0000 C   0  0  0  0  0  0  0  0  0  0  0  0
    9.6689   -1.3450    0.0000 C   0  0  0  0  0  0  0  0  0  0  0  0
   15.7311    3.1550    0.0000 C   0  0  0  0  0  0  0  0  0  0  0  0
   17.4631    3.1550    0.0000 C   0  0  0  0  0  0  0  0  0  0  0  0
   12.2670    7.1550    0.0000 C   0  0  0  0  0  0  0  0  0  0  0  0
   13.9990    7.1550    0.0000 C   0  0  0  0  0  0  0  0  0  0  0  0
    7.9368   -1.3450    0.0000 C   0  0  1  0  0  0  0  0  0  0  0  0
   13.1330    7.6550    0.0000 C   0  0  0  0  0  0  0  0  0  0  0  0
   15.7311    4.1550    0.0000 C   0  0  0  0  0  0  0  0  0  0  0  0
   17.4631    4.1550    0.0000 C   0  0  0  0  0  0  0  0  0  0  0  0
    7.0708   -1.8450    0.0000 C   0  0  1  0  0  0  0  0  0  0  0  0
   16.5971    4.6550    0.0000 C   0  0  0  0  0  0  0  0  0  0  0  0
    7.9368   -0.3450    0.0000 C   0  0  0  0  0  0  0  0  0  0  0  0
    7.0708   -2.8450    0.0000 C   0  0  0  0  0  0  0  0  0  0  0  0
    9.0149    2.5724    0.0000 H   0  0  0  0  0  0  0  0  0  0  0  0
    9.4134    3.2627    0.0000 H   0  0  0  0  0  0  0  0  0  0  0  0
    7.3277    4.5394    0.0000 H   0  0  0  0  0  0  0  0  0  0  0  0
    8.3709    5.0977    0.0000 H   0  0  0  0  0  0  0  0  0  0  0  0
    7.8292    3.2656    0.0000 H   0  0  0  0  0  0  0  0  0  0  0  0
    8.3752    2.2166    0.0000 H   0  0  0  0  0  0  0  0  0  0  0  0
    8.0813    5.5958    0.0000 H   0  0  0  0  0  0  0  0  0  0  0  0
    7.3898    5.9861    0.0000 H   0  0  0  0  0  0  0  0  0  0  0  0
    6.0325    1.0918    0.0000 H   0  0  0  0  0  0  0  0  0  0  0  0
    6.7809    0.9932    0.0000 H   0  0  0  0  0  0  0  0  0  0  0  0
    5.4387    5.1770    0.0000 H   0  0  0  0  0  0  0  0  0  0  0  0
    5.2324    4.4071    0.0000 H   0  0  0  0  0  0  0  0  0  0  0  0
    4.9849    2.0302    0.0000 H   0  0  0  0  0  0  0  0  0  0  0  0
    5.4444    1.4313    0.0000 H   0  0  0  0  0  0  0  0  0  0  0  0
    6.4088    3.1953    0.0000 H   0  0  0  0  0  0  0  0  0  0  0  0
    6.6151    3.9652    0.0000 H   0  0  0  0  0  0  0  0  0  0  0  0
   10.0674    5.1300    0.0000 H   0  0  0  0  0  0  0  0  0  0  0  0
    9.2704    5.1300    0.0000 H   0  0  0  0  0  0  0  0  0  0  0  0
    7.4956    0.7093    0.0000 H   0  0  0  0  0  0  0  0  0  0  0  0
    8.2320    0.4043    0.0000 H   0  0  0  0  0  0  0  0  0  0  0  0
    6.7241    6.4343    0.0000 H   0  0  0  0  0  0  0  0  0  0  0  0
    6.0917    6.9195    0.0000 H   0  0  0  0  0  0  0  0  0  0  0  0
    4.6422    3.8168    0.0000 H   0  0  0  0  0  0  0  0  0  0  0  0
    3.8723    3.6105    0.0000 H   0  0  0  0  0  0  0  0  0  0  0  0
   11.7300    3.8450    0.0000 H   0  0  0  0  0  0  0  0  0  0  0  0
   15.4020   -3.6550    0.0000 H   0  0  0  0  0  0  0  0  0  0  0  0
   17.1340   -1.0350    0.0000 H   0  0  0  0  0  0  0  0  0  0  0  0
   11.4009    5.2750    0.0000 H   0  0  0  0  0  0  0  0  0  0  0  0
   14.2545   -4.2373    0.0000 H   0  0  0  0  0  0  0  0  0  0  0  0
   14.6530   -4.9276    0.0000 H   0  0  0  0  0  0  0  0  0  0  0  0
   17.0646   -2.3200    0.0000 H   0  0  0  0  0  0  0  0  0  0  0  0
   17.8616   -2.3200    0.0000 H   0  0  0  0  0  0  0  0  0  0  0  0
   16.3416   -4.9527    0.0000 H   0  0  0  0  0  0  0  0  0  0  0  0
   15.9431   -4.2624    0.0000 H   0  0  0  0  0  0  0  0  0  0  0  0
   13.3450    4.0724    0.0000 H   0  0  0  0  0  0  0  0  0  0  0  0
   13.7436    4.7627    0.0000 H   0  0  0  0  0  0  0  0  0  0  0  0
   16.2680   -3.1550    0.0000 H   0  0  0  0  0  0  0  0  0  0  0  0
   15.7311    1.7750    0.0000 H   0  0  0  0  0  0  0  0  0  0  0  0
   17.1340   -0.0350    0.0000 H   0  0  0  0  0  0  0  0  0  0  0  0
   13.6699    1.9650    0.0000 H   0  0  0  0  0  0  0  0  0  0  0  0
   13.0031   -2.4200    0.0000 H   0  0  0  0  0  0  0  0  0  0  0  0
   15.1205   -5.7373    0.0000 H   0  0  0  0  0  0  0  0  0  0  0  0
   15.5190   -6.4276    0.0000 H   0  0  0  0  0  0  0  0  0  0  0  0
   16.8091    1.0724    0.0000 H   0  0  0  0  0  0  0  0  0  0  0  0
   17.2077    1.7627    0.0000 H   0  0  0  0  0  0  0  0  0  0  0  0
   13.1330   -3.9650    0.0000 H   0  0  0  0  0  0  0  0  0  0  0  0
   13.6699    2.9650    0.0000 H   0  0  0  0  0  0  0  0  0  0  0  0
   14.8650    2.2750    0.0000 H   0  0  0  0  0  0  0  0  0  0  0  0
   11.9570   -1.3081    0.0000 H   0  0  0  0  0  0  0  0  0  0  0  0
   17.9707    0.0578    0.0000 H   0  0  0  0  0  0  0  0  0  0  0  0
   12.0549    1.7376    0.0000 H   0  0  0  0  0  0  0  0  0  0  0  0
   11.6564    1.0473    0.0000 H   0  0  0  0  0  0  0  0  0  0  0  0
   17.2077   -6.4527    0.0000 H   0  0  0  0  0  0  0  0  0  0  0  0
   16.8091   -5.7624    0.0000 H   0  0  0  0  0  0  0  0  0  0  0  0
   19.6542    0.4202    0.0000 H   0  0  0  0  0  0  0  0  0  0  0  0
    9.9980   -2.1550    0.0000 H   0  0  0  0  0  0  0  0  0  0  0  0
   19.1335   -3.1621    0.0000 H   0  0  0  0  0  0  0  0  0  0  0  0
   10.0344    2.1310    0.0000 H   0  0  0  0  0  0  0  0  0  0  0  0
    9.9980   -3.1550    0.0000 H   0  0  0  0  0  0  0  0  0  0  0  0
   11.0909   -1.8081    0.0000 H   0  0  0  0  0  0  0  0  0  0  0  0
   10.8640   -2.6550    0.0000 H   0  0  0  0  0  0  0  0  0  0  0  0
   11.7109   -2.8819    0.0000 H   0  0  0  0  0  0  0  0  0  0  0  0
   21.2973   -0.7506    0.0000 H   0  0  0  0  0  0  0  0  0  0  0  0
   11.7300    5.8450    0.0000 H   0  0  0  0  0  0  0  0  0  0  0  0
   14.5359    5.8450    0.0000 H   0  0  0  0  0  0  0  0  0  0  0  0
   11.6130   -1.9276    0.0000 H   0  0  0  0  0  0  0  0  0  0  0  0
   12.0115   -1.2373    0.0000 H   0  0  0  0  0  0  0  0  0  0  0  0
   20.7187   -3.4962    0.0000 H   0  0  0  0  0  0  0  0  0  0  0  0
   21.8006   -2.2904    0.0000 H   0  0  0  0  0  0  0  0  0  0  0  0
   15.1941    2.8450    0.0000 H   0  0  0  0  0  0  0  0  0  0  0  0
   18.0001    2.8450    0.0000 H   0  0  0  0  0  0  0  0  0  0  0  0
   13.1330   -0.7250    0.0000 H   0  0  0  0  0  0  0  0  0  0  0  0
   17.1340   -7.6550    0.0000 H   0  0  0  0  0  0  0  0  0  0  0  0
   16.0602   -7.6550    0.0000 H   0  0  0  0  0  0  0  0  0  0  0  0
   11.7300    7.4650    0.0000 H   0  0  0  0  0  0  0  0  0  0  0  0
   14.5359    7.4650    0.0000 H   0  0  0  0  0  0  0  0  0  0  0  0
    7.9368   -1.9650    0.0000 H   0  0  0  0  0  0  0  0  0  0  0  0
    8.8029   -2.4650    0.0000 H   0  0  0  0  0  0  0  0  0  0  0  0
   13.1330    8.2750    0.0000 H   0  0  0  0  0  0  0  0  0  0  0  0
   15.1941    4.4650    0.0000 H   0  0  0  0  0  0  0  0  0  0  0  0
   18.0001    4.4650    0.0000 H   0  0  0  0  0  0  0  0  0  0  0  0
    6.5339   -2.1550    0.0000 H   0  0  0  0  0  0  0  0  0  0  0  0
    6.4508   -2.8450    0.0000 H   0  0  0  0  0  0  0  0  0  0  0  0
    7.0708   -3.4650    0.0000 H   0  0  0  0  0  0  0  0  0  0  0  0
    7.6908   -2.8450    0.0000 H   0  0  0  0  0  0  0  0  0  0  0  0
    5.6678   -1.6550    0.0000 H   0  0  0  0  0  0  0  0  0  0  0  0
   17.1340    5.9650    0.0000 H   0  0  0  0  0  0  0  0  0  0  0  0
    7.0708    0.7750    0.0000 H   0  0  0  0  0  0  0  0  0  0  0  0
  2  3  1  0  0  0  0
  2 76  1  0  0  0  0
  3 86  1  0  0  0  0
  4 49  2  0  0  0  0
  5 55  1  0  0  0  0
  5159  1  0  0  0  0
  6 55  2  0  0  0  0
  7 56  1  0  0  0  0
  8 56  2  0  0  0  0
  9 58  1  0  0  0  0
 10 58  2  0  0  0  0
 11 60  2  0  0  0  0
 12 64  2  0  0  0  0
 13 63  2  0  0  0  0
 14 68  2  0  0  0  0
 71 15  1  1  0  0  0
 15173  1  0  0  0  0
 16 72  2  0  0  0  0
 17 77  2  0  0  0  0
 18 89  2  0  0  0  0
 98 19  1  1  0  0  0
 19187  1  0  0  0  0
 20 99  1  0  0  0  0
 20188  1  0  0  0  0
 21100  1  0  0  0  0
 21189  1  0  0  0  0
 22100  2  0  0  0  0
 23 37  1  0  0  0  0
 23 38  1  0  0  0  0
 23 45  1  0  0  0  0
 24 39  1  0  0  0  0
 24 41  1  0  0  0  0
 24 46  1  0  0  0  0
 25 40  1  0  0  0  0
 25 42  1  0  0  0  0
 25 47  1  0  0  0  0
 26 43  1  0  0  0  0
 26 44  1  0  0  0  0
 26 48  1  0  0  0  0
 27 49  1  0  0  0  0
 50 27  1  6  0  0  0
 27129  1  0  0  0  0
 28 51  1  0  0  0  0
 28 60  1  0  0  0  0
 28138  1  0  0  0  0
 29 52  1  0  0  0  0
 29 68  1  0  0  0  0
 29140  1  0  0  0  0
 30 64  1  0  0  0  0
 30 66  1  0  0  0  0
 30147  1  0  0  0  0
 31 63  1  0  0  0  0
 65 31  1  6  0  0  0
 31148  1  0  0  0  0
 32 61  1  0  0  0  0
 32 72  1  0  0  0  0
 32149  1  0  0  0  0
 33 74  1  0  0  0  0
 33 75  1  0  0  0  0
 33156  1  0  0  0  0
 34 77  1  0  0  0  0
 34 80  1  0  0  0  0
 34160  1  0  0  0  0
 35 78  1  0  0  0  0
 35174  1  0  0  0  0
 35175  1  0  0  0  0
 36 89  1  0  0  0  0
 94 36  1  1  0  0  0
 36179  1  0  0  0  0
 37 39  1  0  0  0  0
 37102  1  0  0  0  0
 37103  1  0  0  0  0
 38 40  1  0  0  0  0
 38104  1  0  0  0  0
 38105  1  0  0  0  0
 39106  1  0  0  0  0
 39107  1  0  0  0  0
 40108  1  0  0  0  0
 40109  1  0  0  0  0
 41 43  1  0  0  0  0
 41110  1  0  0  0  0
 41111  1  0  0  0  0
 42 44  1  0  0  0  0
 42112  1  0  0  0  0
 42113  1  0  0  0  0
 43114  1  0  0  0  0
 43115  1  0  0  0  0
 44116  1  0  0  0  0
 44117  1  0  0  0  0
 45 49  1  0  0  0  0
 45118  1  0  0  0  0
 45119  1  0  0  0  0
 46 55  1  0  0  0  0
 46120  1  0  0  0  0
 46121  1  0  0  0  0
 47 56  1  0  0  0  0
 47122  1  0  0  0  0
 47123  1  0  0  0  0
 48 58  1  0  0  0  0
 48124  1  0  0  0  0
 48125  1  0  0  0  0
 50 59  1  0  0  0  0
 50 63  1  0  0  0  0
 50126  1  0  0  0  0
 51 53  1  1  0  0  0
 51 64  1  0  0  0  0
 51127  1  0  0  0  0
 52 54  1  6  0  0  0
 52 60  1  0  0  0  0
 52128  1  0  0  0  0
 53 57  1  0  0  0  0
 53130  1  0  0  0  0
 53131  1  0  0  0  0
 54 62  1  0  0  0  0
 54132  1  0  0  0  0
 54133  1  0  0  0  0
 57 67  1  0  0  0  0
 57134  1  0  0  0  0
 57135  1  0  0  0  0
 59 73  1  0  0  0  0
 59136  1  0  0  0  0
 59137  1  0  0  0  0
 61 68  1  0  0  0  0
 61 70  1  1  0  0  0
 61139  1  0  0  0  0
 62 69  1  0  0  0  0
 62 74  2  0  0  0  0
 65 72  1  0  0  0  0
 65 76  1  0  0  0  0
 65141  1  0  0  0  0
 66 71  1  0  0  0  0
 66 77  1  0  0  0  0
 66142  1  1  0  0  0
 67 78  1  0  0  0  0
 67143  1  0  0  0  0
 67144  1  0  0  0  0
 69 75  1  0  0  0  0
 69 81  2  0  0  0  0
 70 79  1  0  0  0  0
 70145  1  0  0  0  0
 70146  1  0  0  0  0
 71 82  1  0  0  0  0
 71150  1  0  0  0  0
 73 84  2  0  0  0  0
 73 85  1  0  0  0  0
 74151  1  0  0  0  0
 75 83  2  0  0  0  0
 76152  1  0  0  0  0
 76153  1  0  0  0  0
 78154  1  0  0  0  0
 78155  1  0  0  0  0
 79 90  2  0  0  0  0
 79 91  1  0  0  0  0
 80 86  1  0  0  0  0
 80 89  1  6  0  0  0
 80157  1  0  0  0  0
 81 87  1  0  0  0  0
 81158  1  0  0  0  0
 82161  1  0  0  0  0
 82162  1  0  0  0  0
 82163  1  0  0  0  0
 83 88  1  0  0  0  0
 83164  1  0  0  0  0
 84 92  1  0  0  0  0
 84165  1  0  0  0  0
 85 93  2  0  0  0  0
 85166  1  0  0  0  0
 86167  1  0  0  0  0
 86168  1  0  0  0  0
 87 88  2  0  0  0  0
 87169  1  0  0  0  0
 88170  1  0  0  0  0
 90 96  1  0  0  0  0
 90171  1  0  0  0  0
 91 97  2  0  0  0  0
 91172  1  0  0  0  0
 92 95  2  0  0  0  0
 92176  1  0  0  0  0
 93 95  1  0  0  0  0
 93177  1  0  0  0  0
 94 98  1  0  0  0  0
 94100  1  0  0  0  0
 94178  1  0  0  0  0
 95180  1  0  0  0  0
 96 99  2  0  0  0  0
 96181  1  0  0  0  0
 97 99  1  0  0  0  0
 97182  1  0  0  0  0
 98101  1  0  0  0  0
 98183  1  0  0  0  0
101184  1  0  0  0  0
101185  1  0  0  0  0
101186  1  0  0  0  0
M  CHG  3   1   2   7  -1   9  -1
M  ISO  1   1  64
M  END
> <PUBCHEM_COMPOUND_CID>
124220636

> <PUBCHEM_COMPOUND_CANONICALIZED>
1

> <PUBCHEM_CACTVS_COMPLEXITY>
2730

> <PUBCHEM_CACTVS_HBOND_ACCEPTOR>
26

> <PUBCHEM_CACTVS_HBOND_DONOR>
15

> <PUBCHEM_CACTVS_ROTATABLE_BOND>
24

> <PUBCHEM_CACTVS_SUBSKEYS>
AAADcfB//gBgAAAEAAAAAAAAAAAAAWAAAAAwYMAAAAAAAFgB9AAAHgQQCAAADDzl3ga+zvPJkgCoAzX3XACCgCAxIiAI2aG+bJgKdvbCkbOUcAhn9hHY2AeYyeCOoAAAAAACAABAAAAAAAQAAAAAAAAAAA==

> <PUBCHEM_IUPAC_OPENEYE_NAME>
2-[4-[2-[[(1R)-2-[[(4R,7S,10S,13R,16S,19R)-10-(4-aminobutyl)-4-[[(1S,2R)-1-carboxy-2-hydroxy-propyl]carbamoyl]-7-[(1R)-1-hydroxyethyl]-16-[(4-hydroxyphenyl)methyl]-13-(1H-indol-3-ylmethyl)-6,9,12,15,18-pentaoxo-1,2-dithia-5,8,11,14,17-pentazacycloicos-19-yl]amino]-1-benzyl-2-oxo-ethyl]amino]-2-oxo-ethyl]-10-(carboxylatomethyl)-7-(carboxymethyl)-1,4,7,10-tetrazacyclododec-1-yl]acetate;copper-64(2+)

> <PUBCHEM_IUPAC_CAS_NAME>
2-[4-[2-[[(2R)-1-[[(4R,7S,10S,13R,16S,19R)-10-(4-aminobutyl)-4-[[[(1S,2R)-1-carboxy-2-hydroxypropyl]amino]-oxomethyl]-7-[(1R)-1-hydroxyethyl]-16-[(4-hydroxyphenyl)methyl]-13-(1H-indol-3-ylmethyl)-6,9,12,15,18-pentaoxo-1,2-dithia-5,8,11,14,17-pentazacycloeicos-19-yl]amino]-1-oxo-3-phenylpropan-2-yl]amino]-2-oxoethyl]-10-(carboxylatomethyl)-7-(carboxymethyl)-1,4,7,10-tetrazacyclododec-1-yl]acetate;copper-64(2+)

> <PUBCHEM_IUPAC_NAME_MARKUP>
2-[4-[2-[[(2<I>R</I>)-1-[[(4<I>R</I>,7<I>S</I>,10<I>S</I>,13<I>R</I>,16<I>S</I>,19<I>R</I>)-10-(4-aminobutyl)-4-[[(1<I>S</I>,2<I>R</I>)-1-carboxy-2-hydroxypropyl]carbamoyl]-7-[(1<I>R</I>)-1-hydroxyethyl]-16-[(4-hydroxyphenyl)methyl]-13-(1<I>H</I>-indol-3-ylmethyl)-6,9,12,15,18-pentaoxo-1,2-dithia-5,8,11,14,17-pentazacycloicos-19-yl]amino]-1-oxo-3-phenylpropan-2-yl]amino]-2-oxoethyl]-10-(carboxylatomethyl)-7-(carboxymethyl)-1,4,7,10-tetrazacyclododec-1-yl]acetate;copper-64(2+)

> <PUBCHEM_IUPAC_NAME>
2-[4-[2-[[(2R)-1-[[(4R,7S,10S,13R,16S,19R)-10-(4-aminobutyl)-4-[[(1S,2R)-1-carboxy-2-hydroxypropyl]carbamoyl]-7-[(1R)-1-hydroxyethyl]-16-[(4-hydroxyphenyl)methyl]-13-(1H-indol-3-ylmethyl)-6,9,12,15,18-pentaoxo-1,2-dithia-5,8,11,14,17-pentazacycloicos-19-yl]amino]-1-oxo-3-phenylpropan-2-yl]amino]-2-oxoethyl]-10-(carboxylatomethyl)-7-(carboxymethyl)-1,4,7,10-tetrazacyclododec-1-yl]acetate;copper-64(2+)

> <PUBCHEM_IUPAC_SYSTEMATIC_NAME>
2-[4-[2-[[(2R)-1-[[(4R,7S,10S,13R,16S,19R)-10-(4-azanylbutyl)-4-[[(2S,3R)-1,3-bis(oxidanyl)-1-oxidanylidene-butan-2-yl]carbamoyl]-16-[(4-hydroxyphenyl)methyl]-13-(1H-indol-3-ylmethyl)-7-[(1R)-1-oxidanylethyl]-6,9,12,15,18-pentakis(oxidanylidene)-1,2-dithia-5,8,11,14,17-pentazacycloicos-19-yl]amino]-1-oxidanylidene-3-phenyl-propan-2-yl]amino]-2-oxidanylidene-ethyl]-7-(2-hydroxy-2-oxoethyl)-10-(2-oxidanidyl-2-oxidanylidene-ethyl)-1,4,7,10-tetrazacyclododec-1-yl]ethanoate;copper-64(2+)

> <PUBCHEM_IUPAC_TRADITIONAL_NAME>
2-[4-[2-[[(1R)-2-[[(4R,7S,10S,13R,16S,19R)-10-(4-aminobutyl)-4-[[(1S,2R)-1-carboxy-2-hydroxy-propyl]carbamoyl]-16-(4-hydroxybenzyl)-7-[(1R)-1-hydroxyethyl]-13-(1H-indol-3-ylmethyl)-6,9,12,15,18-pentaketo-1,2-dithia-5,8,11,14,17-pentazacycloeicos-19-yl]amino]-1-benzyl-2-keto-ethyl]amino]-2-keto-ethyl]-10-(carboxylatomethyl)-7-(carboxymethyl)-1,4,7,10-tetrazacyclododec-1-yl]acetate;copper-64(2+)

> <PUBCHEM_IUPAC_INCHI>
InChI=1S/C65H90N14O19S2.Cu/c1-38(80)56-64(96)73-51(63(95)75-57(39(2)81)65(97)98)37-100-99-36-50(72-59(91)47(28-40-10-4-3-5-11-40)68-52(83)32-76-20-22-77(33-53(84)85)24-26-79(35-55(88)89)27-25-78(23-21-76)34-54(86)87)62(94)70-48(29-41-15-17-43(82)18-16-41)60(92)71-49(30-42-31-67-45-13-7-6-12-44(42)45)61(93)69-46(58(90)74-56)14-8-9-19-66;/h3-7,10-13,15-18,31,38-39,46-51,56-57,67,80-82H,8-9,14,19-30,32-37,66H2,1-2H3,(H,68,83)(H,69,93)(H,70,94)(H,71,92)(H,72,91)(H,73,96)(H,74,90)(H,75,95)(H,84,85)(H,86,87)(H,88,89)(H,97,98);/q;+2/p-2/t38-,39-,46+,47-,48+,49-,50+,51+,56+,57+;/m1./s1/i;1+0

> <PUBCHEM_IUPAC_INCHIKEY>
IJRLLVFQGCCPPI-NVGRTJHCSA-L

> <PUBCHEM_EXACT_MASS>
1496.508923

> <PUBCHEM_MOLECULAR_FORMULA>
C65H88CuN14O19S2

> <PUBCHEM_MOLECULAR_WEIGHT>
1497.5

> <PUBCHEM_OPENEYE_CAN_SMILES>
CC(C1C(=O)NC(CSSCC(C(=O)NC(C(=O)NC(C(=O)NC(C(=O)N1)CCCCN)CC2=CNC3=CC=CC=C32)CC4=CC=C(C=C4)O)NC(=O)C(CC5=CC=CC=C5)NC(=O)CN6CCN(CCN(CCN(CC6)CC(=O)[O-])CC(=O)[O-])CC(=O)O)C(=O)NC(C(C)O)C(=O)O)O.[Cu+2]

> <PUBCHEM_OPENEYE_ISO_SMILES>
C[C@H]([C@H]1C(=O)N[C@@H](CSSC[C@@H](C(=O)N[C@H](C(=O)N[C@@H](C(=O)N[C@H](C(=O)N1)CCCCN)CC2=CNC3=CC=CC=C32)CC4=CC=C(C=C4)O)NC(=O)[C@@H](CC5=CC=CC=C5)NC(=O)CN6CCN(CCN(CCN(CC6)CC(=O)[O-])CC(=O)[O-])CC(=O)O)C(=O)N[C@@H]([C@@H](C)O)C(=O)O)O.[64Cu+2]

> <PUBCHEM_CACTVS_TPSA>
554

> <PUBCHEM_MONOISOTOPIC_WEIGHT>
1496.508923

> <PUBCHEM_TOTAL_CHARGE>
0

> <PUBCHEM_HEAVY_ATOM_COUNT>
101

> <PUBCHEM_ATOM_DEF_STEREO_COUNT>
10

> <PUBCHEM_ATOM_UDEF_STEREO_COUNT>
0

> <PUBCHEM_BOND_DEF_STEREO_COUNT>
0

> <PUBCHEM_BOND_UDEF_STEREO_COUNT>
0

> <PUBCHEM_ISOTOPIC_ATOM_COUNT>
1

> <PUBCHEM_COMPONENT_COUNT>
2

> <PUBCHEM_CACTVS_TAUTO_COUNT>
-1

> <PUBCHEM_COORDINATE_TYPE>
1
5
255

> <PUBCHEM_BONDANNOTATIONS>
71  15  5
98  19  5
50  27  6
65  31  6
33  74  8
33  75  8
94  36  5
51  53  5
52  54  6
61  70  5
62  69  8
62  74  8
66  142  5
69  75  8
69  81  8
73  84  8
73  85  8
75  83  8
79  90  8
79  91  8
80  89  6
81  87  8
83  88  8
84  92  8
85  93  8
87  88  8
90  96  8
91  97  8
92  95  8
93  95  8
96  99  8
97  99  8

$$$$
