86278352
  -OEChem-12122308182D

 75 75  0     1  0  0  0  0  0999 V2000
    3.5400    5.1682    0.0000 S   0  0  0  0  0  0  0  0  0  0  0  0
    2.8677    3.0991    0.0000 O   0  0  0  0  0  0  0  0  0  0  0  0
    6.3879    3.0991    0.0000 O   0  0  0  0  0  0  0  0  0  0  0  0
    8.0919   -3.1797    0.0000 O   0  0  0  0  0  0  0  0  0  0  0  0
    9.8239   -4.1797    0.0000 O   0  0  0  0  0  0  0  0  0  0  0  0
    9.8239   -6.1797    0.0000 O   0  0  0  0  0  0  0  0  0  0  0  0
    4.6278   -0.1797    0.0000 O   0  0  0  0  0  0  0  0  0  0  0  0
    3.1779    8.6133    0.0000 O   0  0  0  0  0  0  0  0  0  0  0  0
    4.7602    7.9088    0.0000 O   0  0  0  0  0  0  0  0  0  0  0  0
   12.4220   -4.6797    0.0000 O   0  0  0  0  0  0  0  0  0  0  0  0
   10.6900   -8.6797    0.0000 O   0  0  0  0  0  0  0  0  0  0  0  0
    4.6278    2.8203    0.0000 N   0  0  0  0  0  0  0  0  0  0  0  0
    6.3598   -0.1797    0.0000 N   0  0  0  0  0  0  0  0  0  0  0  0
    2.3644    6.7862    0.0000 N   0  0  0  0  0  0  0  0  0  0  0  0
    4.1278    4.3592    0.0000 C   0  0  3  0  0  0  0  0  0  0  0  0
    5.1278    4.3592    0.0000 C   0  0  0  0  0  0  0  0  0  0  0  0
    3.8188    3.4081    0.0000 C   0  0  0  0  0  0  0  0  0  0  0  0
    4.6278    1.8203    0.0000 C   0  0  0  0  0  0  0  0  0  0  0  0
    5.4368    3.4081    0.0000 C   0  0  0  0  0  0  0  0  0  0  0  0
    5.4938    1.3203    0.0000 C   0  0  0  0  0  0  0  0  0  0  0  0
    3.9467    6.0817    0.0000 C   0  0  0  0  0  0  0  0  0  0  0  0
    5.4938    0.3203    0.0000 C   0  0  0  0  0  0  0  0  0  0  0  0
    3.3590    6.8907    0.0000 C   0  0  1  0  0  0  0  0  0  0  0  0
    6.3598   -1.1797    0.0000 C   0  0  0  0  0  0  0  0  0  0  0  0
    7.2259   -1.6797    0.0000 C   0  0  0  0  0  0  0  0  0  0  0  0
    8.9579   -4.6797    0.0000 C   0  0  3  0  0  0  0  0  0  0  0  0
    7.2259   -2.6797    0.0000 C   0  0  0  0  0  0  0  0  0  0  0  0
    8.0919   -4.1797    0.0000 C   0  0  0  0  0  0  0  0  0  0  0  0
    8.9579   -5.6797    0.0000 C   0  0  0  0  0  0  0  0  0  0  0  0
    3.7657    7.8043    0.0000 C   0  0  0  0  0  0  0  0  0  0  0  0
   10.6900   -4.6797    0.0000 C   0  0  0  0  0  0  0  0  0  0  0  0
    9.8239   -7.1797    0.0000 C   0  0  0  0  0  0  0  0  0  0  0  0
   11.5560   -4.1797    0.0000 C   0  0  0  0  0  0  0  0  0  0  0  0
   10.6900   -7.6797    0.0000 C   0  0  0  0  0  0  0  0  0  0  0  0
   13.2880   -4.1797    0.0000 C   0  0  0  0  0  0  0  0  0  0  0  0
   11.5560   -9.1797    0.0000 C   0  0  0  0  0  0  0  0  0  0  0  0
    4.4093    4.9116    0.0000 H   0  0  0  0  0  0  0  0  0  0  0  0
    5.7342    4.4881    0.0000 H   0  0  0  0  0  0  0  0  0  0  0  0
    5.0630    4.9758    0.0000 H   0  0  0  0  0  0  0  0  0  0  0  0
    4.0172    1.9280    0.0000 H   0  0  0  0  0  0  0  0  0  0  0  0
    4.4157    1.2377    0.0000 H   0  0  0  0  0  0  0  0  0  0  0  0
    6.1044    1.2126    0.0000 H   0  0  0  0  0  0  0  0  0  0  0  0
    5.7059    1.9029    0.0000 H   0  0  0  0  0  0  0  0  0  0  0  0
    4.4607    5.7350    0.0000 H   0  0  0  0  0  0  0  0  0  0  0  0
    4.3774    6.5277    0.0000 H   0  0  0  0  0  0  0  0  0  0  0  0
    2.9945    7.3923    0.0000 H   0  0  0  0  0  0  0  0  0  0  0  0
    5.7492   -1.0720    0.0000 H   0  0  0  0  0  0  0  0  0  0  0  0
    6.1478   -1.7623    0.0000 H   0  0  0  0  0  0  0  0  0  0  0  0
    7.8364   -1.7874    0.0000 H   0  0  0  0  0  0  0  0  0  0  0  0
    7.4379   -1.0971    0.0000 H   0  0  0  0  0  0  0  0  0  0  0  0
    8.9579   -4.0597    0.0000 H   0  0  0  0  0  0  0  0  0  0  0  0
    6.8968    0.1303    0.0000 H   0  0  0  0  0  0  0  0  0  0  0  0
    7.4813   -4.0720    0.0000 H   0  0  0  0  0  0  0  0  0  0  0  0
    7.8798   -4.7623    0.0000 H   0  0  0  0  0  0  0  0  0  0  0  0
    6.6153   -2.5720    0.0000 H   0  0  0  0  0  0  0  0  0  0  0  0
    7.0138   -3.2623    0.0000 H   0  0  0  0  0  0  0  0  0  0  0  0
    8.3473   -5.5720    0.0000 H   0  0  0  0  0  0  0  0  0  0  0  0
    8.7459   -6.2623    0.0000 H   0  0  0  0  0  0  0  0  0  0  0  0
    2.0000    7.2878    0.0000 H   0  0  0  0  0  0  0  0  0  0  0  0
    2.1122    6.2198    0.0000 H   0  0  0  0  0  0  0  0  0  0  0  0
   10.2914   -5.1546    0.0000 H   0  0  0  0  0  0  0  0  0  0  0  0
   11.0885   -5.1546    0.0000 H   0  0  0  0  0  0  0  0  0  0  0  0
    9.2134   -7.0720    0.0000 H   0  0  0  0  0  0  0  0  0  0  0  0
    9.6119   -7.7623    0.0000 H   0  0  0  0  0  0  0  0  0  0  0  0
   11.9545   -3.7047    0.0000 H   0  0  0  0  0  0  0  0  0  0  0  0
   11.1575   -3.7047    0.0000 H   0  0  0  0  0  0  0  0  0  0  0  0
   11.3005   -7.7874    0.0000 H   0  0  0  0  0  0  0  0  0  0  0  0
   10.9020   -7.0971    0.0000 H   0  0  0  0  0  0  0  0  0  0  0  0
    3.4301    9.1797    0.0000 H   0  0  0  0  0  0  0  0  0  0  0  0
   13.5980   -4.7166    0.0000 H   0  0  0  0  0  0  0  0  0  0  0  0
   13.8250   -3.8697    0.0000 H   0  0  0  0  0  0  0  0  0  0  0  0
   12.9780   -3.6428    0.0000 H   0  0  0  0  0  0  0  0  0  0  0  0
   11.2460   -9.7166    0.0000 H   0  0  0  0  0  0  0  0  0  0  0  0
   12.0929   -9.4897    0.0000 H   0  0  0  0  0  0  0  0  0  0  0  0
   11.8660   -8.6428    0.0000 H   0  0  0  0  0  0  0  0  0  0  0  0
  1 15  1  0  0  0  0
  1 21  1  0  0  0  0
  2 17  2  0  0  0  0
  3 19  2  0  0  0  0
  4 27  1  0  0  0  0
  4 28  1  0  0  0  0
  5 26  1  0  0  0  0
  5 31  1  0  0  0  0
  6 29  1  0  0  0  0
  6 32  1  0  0  0  0
  7 22  2  0  0  0  0
  8 30  1  0  0  0  0
  8 69  1  0  0  0  0
  9 30  2  0  0  0  0
 10 33  1  0  0  0  0
 10 35  1  0  0  0  0
 11 34  1  0  0  0  0
 11 36  1  0  0  0  0
 12 17  1  0  0  0  0
 12 18  1  0  0  0  0
 12 19  1  0  0  0  0
 13 22  1  0  0  0  0
 13 24  1  0  0  0  0
 13 52  1  0  0  0  0
 23 14  1  6  0  0  0
 14 59  1  0  0  0  0
 14 60  1  0  0  0  0
 15 16  1  0  0  0  0
 15 17  1  0  0  0  0
 15 37  1  0  0  0  0
 16 19  1  0  0  0  0
 16 38  1  0  0  0  0
 16 39  1  0  0  0  0
 18 20  1  0  0  0  0
 18 40  1  0  0  0  0
 18 41  1  0  0  0  0
 20 22  1  0  0  0  0
 20 42  1  0  0  0  0
 20 43  1  0  0  0  0
 21 23  1  0  0  0  0
 21 44  1  0  0  0  0
 21 45  1  0  0  0  0
 23 30  1  0  0  0  0
 23 46  1  0  0  0  0
 24 25  1  0  0  0  0
 24 47  1  0  0  0  0
 24 48  1  0  0  0  0
 25 27  1  0  0  0  0
 25 49  1  0  0  0  0
 25 50  1  0  0  0  0
 26 28  1  0  0  0  0
 26 29  1  0  0  0  0
 26 51  1  0  0  0  0
 27 55  1  0  0  0  0
 27 56  1  0  0  0  0
 28 53  1  0  0  0  0
 28 54  1  0  0  0  0
 29 57  1  0  0  0  0
 29 58  1  0  0  0  0
 31 33  1  0  0  0  0
 31 61  1  0  0  0  0
 31 62  1  0  0  0  0
 32 34  1  0  0  0  0
 32 63  1  0  0  0  0
 32 64  1  0  0  0  0
 33 65  1  0  0  0  0
 33 66  1  0  0  0  0
 34 67  1  0  0  0  0
 34 68  1  0  0  0  0
 35 70  1  0  0  0  0
 35 71  1  0  0  0  0
 35 72  1  0  0  0  0
 36 73  1  0  0  0  0
 36 74  1  0  0  0  0
 36 75  1  0  0  0  0
M  END
> <PUBCHEM_COMPOUND_CID>
86278352

> <PUBCHEM_COMPOUND_CANONICALIZED>
1

> <PUBCHEM_CACTVS_COMPLEXITY>
685

> <PUBCHEM_CACTVS_HBOND_ACCEPTOR>
12

> <PUBCHEM_CACTVS_HBOND_DONOR>
3

> <PUBCHEM_CACTVS_ROTATABLE_BOND>
22

> <PUBCHEM_CACTVS_SUBSKEYS>
AAADcfB7PABAAAAAAAAAAAAAAAAAAWAAAAAAAAAAAAAAAAAAAAAAHgQQCAAACDzlwAaCCAPABggIAAGQGAAAAAAAABAAAIGIAAADABggwAAGQAADFiCiAAAFAAAAAAAAAAAAAAAAAAAAAAAAAAAAAAAAAA==

> <PUBCHEM_IUPAC_OPENEYE_NAME>
(2R)-2-amino-3-[1-[3-[3-[2,3-bis(2-methoxyethoxy)propoxy]propylamino]-3-oxo-propyl]-2,5-dioxo-pyrrolidin-3-yl]sulfanyl-propanoic acid

> <PUBCHEM_IUPAC_CAS_NAME>
(2R)-2-amino-3-[[1-[3-[3-[2,3-bis(2-methoxyethoxy)propoxy]propylamino]-3-oxopropyl]-2,5-dioxo-3-pyrrolidinyl]thio]propanoic acid

> <PUBCHEM_IUPAC_NAME_MARKUP>
(2<I>R</I>)-2-amino-3-[1-[3-[3-[2,3-bis(2-methoxyethoxy)propoxy]propylamino]-3-oxopropyl]-2,5-dioxopyrrolidin-3-yl]sulfanylpropanoic acid

> <PUBCHEM_IUPAC_NAME>
(2R)-2-amino-3-[1-[3-[3-[2,3-bis(2-methoxyethoxy)propoxy]propylamino]-3-oxopropyl]-2,5-dioxopyrrolidin-3-yl]sulfanylpropanoic acid

> <PUBCHEM_IUPAC_SYSTEMATIC_NAME>
(2R)-2-azanyl-3-[1-[3-[3-[2,3-bis(2-methoxyethoxy)propoxy]propylamino]-3-oxidanylidene-propyl]-2,5-bis(oxidanylidene)pyrrolidin-3-yl]sulfanyl-propanoic acid

> <PUBCHEM_IUPAC_TRADITIONAL_NAME>
(2R)-2-amino-3-[[1-[3-[3-[2,3-bis(2-methoxyethoxy)propoxy]propylamino]-3-keto-propyl]-2,5-diketo-pyrrolidin-3-yl]thio]propionic acid

> <PUBCHEM_IUPAC_INCHI>
InChI=1S/C22H39N3O10S/c1-31-8-10-34-14-16(35-11-9-32-2)13-33-7-3-5-24-19(26)4-6-25-20(27)12-18(21(25)28)36-15-17(23)22(29)30/h16-18H,3-15,23H2,1-2H3,(H,24,26)(H,29,30)/t16?,17-,18?/m0/s1

> <PUBCHEM_IUPAC_INCHIKEY>
UGQOPAJHKRJXBG-ADKAHSJRSA-N

> <PUBCHEM_XLOGP3_AA>
-4.7

> <PUBCHEM_EXACT_MASS>
537.23561562

> <PUBCHEM_MOLECULAR_FORMULA>
C22H39N3O10S

> <PUBCHEM_MOLECULAR_WEIGHT>
537.6

> <PUBCHEM_OPENEYE_CAN_SMILES>
COCCOCC(COCCCNC(=O)CCN1C(=O)CC(C1=O)SCC(C(=O)O)N)OCCOC

> <PUBCHEM_OPENEYE_ISO_SMILES>
COCCOCC(COCCCNC(=O)CCN1C(=O)CC(C1=O)SC[C@@H](C(=O)O)N)OCCOC

> <PUBCHEM_CACTVS_TPSA>
201

> <PUBCHEM_MONOISOTOPIC_WEIGHT>
537.23561562

> <PUBCHEM_TOTAL_CHARGE>
0

> <PUBCHEM_HEAVY_ATOM_COUNT>
36

> <PUBCHEM_ATOM_DEF_STEREO_COUNT>
1

> <PUBCHEM_ATOM_UDEF_STEREO_COUNT>
2

> <PUBCHEM_BOND_DEF_STEREO_COUNT>
0

> <PUBCHEM_BOND_UDEF_STEREO_COUNT>
0

> <PUBCHEM_ISOTOPIC_ATOM_COUNT>
0

> <PUBCHEM_COMPONENT_COUNT>
1

> <PUBCHEM_CACTVS_TAUTO_COUNT>
12

> <PUBCHEM_COORDINATE_TYPE>
1
5
255

> <PUBCHEM_BONDANNOTATIONS>
15  1  3
23  14  6
26  28  3

$$$$
