21195079
  -OEChem-12122310222D

  4  0  0     0  0  0  0  0  0999 V2000
    0.0000    0.0000    0.0000 Zn  0  2  0  0  0  0  0  0  0  0  0  0
    2.5000    0.0000    0.0000 Zn  0  2  0  0  0  0  0  0  0  0  0  0
    2.5000    2.5000    0.0000 Zn  0  2  0  0  0  0  0  0  0  0  0  0
    0.0000    2.5000    0.0000 Zn  0  2  0  0  0  0  0  0  0  0  0  0
M  CHG  4   1   2   2   2   3   2   4   2
M  END
> <PUBCHEM_COMPOUND_CID>
21195079

> <PUBCHEM_COMPOUND_CANONICALIZED>
1

> <PUBCHEM_CACTVS_COMPLEXITY>
0

> <PUBCHEM_CACTVS_HBOND_ACCEPTOR>
0

> <PUBCHEM_CACTVS_HBOND_DONOR>
0

> <PUBCHEM_CACTVS_ROTATABLE_BOND>
0

> <PUBCHEM_CACTVS_SUBSKEYS>
AAADcQAAAAAAAAACAAAAAAAAAAAAAAAAAAAAAAAAAAAAAAAAAAAAAAAAAAAAAAAAAAAAAAAAAAAAAAAAAAAAAAAAAAAAAAAAAAAAAAAAAAAAAAAAAAAAAAAAAAAAAAAAAAAAAAAAAAAAAAAAAAAAAAAAAA==

> <PUBCHEM_IUPAC_OPENEYE_NAME>
zinc(2+)

> <PUBCHEM_IUPAC_CAS_NAME>
zinc(2+)

> <PUBCHEM_IUPAC_NAME_MARKUP>
zinc(2+)

> <PUBCHEM_IUPAC_NAME>
zinc(2+)

> <PUBCHEM_IUPAC_SYSTEMATIC_NAME>
zinc(2+)

> <PUBCHEM_IUPAC_TRADITIONAL_NAME>
zinc(2+)

> <PUBCHEM_IUPAC_INCHI>
InChI=1S/4Zn/q4*+2

> <PUBCHEM_IUPAC_INCHIKEY>
LZQXMCNBQHANEY-UHFFFAOYSA-N

> <PUBCHEM_EXACT_MASS>
261.70916

> <PUBCHEM_MOLECULAR_FORMULA>
Zn4+8

> <PUBCHEM_MOLECULAR_WEIGHT>
261.5

> <PUBCHEM_OPENEYE_CAN_SMILES>
[Zn+2].[Zn+2].[Zn+2].[Zn+2]

> <PUBCHEM_OPENEYE_ISO_SMILES>
[Zn+2].[Zn+2].[Zn+2].[Zn+2]

> <PUBCHEM_CACTVS_TPSA>
0

> <PUBCHEM_MONOISOTOPIC_WEIGHT>
255.71657

> <PUBCHEM_TOTAL_CHARGE>
8

> <PUBCHEM_HEAVY_ATOM_COUNT>
4

> <PUBCHEM_ATOM_DEF_STEREO_COUNT>
0

> <PUBCHEM_ATOM_UDEF_STEREO_COUNT>
0

> <PUBCHEM_BOND_DEF_STEREO_COUNT>
0

> <PUBCHEM_BOND_UDEF_STEREO_COUNT>
0

> <PUBCHEM_ISOTOPIC_ATOM_COUNT>
0

> <PUBCHEM_COMPONENT_COUNT>
4

> <PUBCHEM_CACTVS_TAUTO_COUNT>
-1

> <PUBCHEM_COORDINATE_TYPE>
1
5
255

$$$$
