57503849
  -OEChem-12122310172D

194196  0     1  0  0  0  0  0999 V2000
    6.5991    3.6200    0.0000 O   0  0  0  0  0  0  0  0  0  0  0  0
    5.7331    5.1200    0.0000 O   0  0  0  0  0  0  0  0  0  0  0  0
    8.3312    5.6200    0.0000 O   0  0  0  0  0  0  0  0  0  0  0  0
    8.3312    2.6200    0.0000 O   0  0  0  0  0  0  0  0  0  0  0  0
    4.8671    2.6200    0.0000 O   0  0  0  0  0  0  0  0  0  0  0  0
    3.1350    3.6200    0.0000 O   0  0  0  0  0  0  0  0  0  0  0  0
    3.1350    5.6200    0.0000 O   0  0  0  0  0  0  0  0  0  0  0  0
   10.0632    3.6200    0.0000 O   0  0  0  0  0  0  0  0  0  0  0  0
   10.0632    5.6200    0.0000 O   0  0  0  0  0  0  0  0  0  0  0  0
    7.4651   16.9669    0.0000 O   0  0  0  0  0  0  0  0  0  0  0  0
    5.7331   16.9669    0.0000 O   0  0  0  0  0  0  0  0  0  0  0  0
    8.3312   14.4669    0.0000 O   0  0  0  0  0  0  0  0  0  0  0  0
    6.5991    6.6200    0.0000 O   0  0  0  0  0  0  0  0  0  0  0  0
    4.0010    7.1200    0.0000 O   0  0  0  0  0  0  0  0  0  0  0  0
    5.7331   15.9669    0.0000 O   0  0  0  0  0  0  0  0  0  0  0  0
    7.4651   18.9669    0.0000 O   0  0  0  0  0  0  0  0  0  0  0  0
    5.7331   19.9669    0.0000 O   0  0  0  0  0  0  0  0  0  0  0  0
    4.0010   18.9669    0.0000 O   0  0  0  0  0  0  0  0  0  0  0  0
    5.7331   13.9669    0.0000 O   0  0  0  0  0  0  0  0  0  0  0  0
    7.4651   12.9669    0.0000 O   0  0  0  0  0  0  0  0  0  0  0  0
   10.0632   15.4669    0.0000 O   0  0  0  0  0  0  0  0  0  0  0  0
    3.1350   17.4669    0.0000 O   0  0  0  0  0  0  0  0  0  0  0  0
   10.0632    0.6200    0.0000 O   0  0  0  0  0  0  0  0  0  0  0  0
    3.1350    0.6200    0.0000 O   0  0  0  0  0  0  0  0  0  0  0  0
    0.5369    4.1200    0.0000 O   0  0  0  0  0  0  0  0  0  0  0  0
    2.2690    8.1200    0.0000 O   0  0  0  0  0  0  0  0  0  0  0  0
   12.6613    4.1200    0.0000 O   0  0  0  0  0  0  0  0  0  0  0  0
   10.9292    8.1200    0.0000 O   0  0  0  0  0  0  0  0  0  0  0  0
    8.3312    8.6200    0.0000 O   0  0  0  0  0  0  0  0  0  0  0  0
    4.8671    9.6200    0.0000 O   0  0  0  0  0  0  0  0  0  0  0  0
    7.4651    4.1200    0.0000 C   0  0  1  0  0  0  0  0  0  0  0  0
    8.3312    3.6200    0.0000 C   0  0  1  0  0  0  0  0  0  0  0  0
    4.8671    3.6200    0.0000 C   0  0  2  0  0  0  0  0  0  0  0  0
    4.0010    4.1200    0.0000 C   0  0  2  0  0  0  0  0  0  0  0  0
    5.7331    4.1200    0.0000 C   0  0  2  0  0  0  0  0  0  0  0  0
    4.0010    5.1200    0.0000 C   0  0  1  0  0  0  0  0  0  0  0  0
    7.4651    5.1200    0.0000 C   0  0  1  0  0  0  0  0  0  0  0  0
    9.1972    4.1200    0.0000 C   0  0  2  0  0  0  0  0  0  0  0  0
    4.8671    5.6200    0.0000 C   0  0  1  0  0  0  0  0  0  0  0  0
    9.1972    5.1200    0.0000 C   0  0  1  0  0  0  0  0  0  0  0  0
    6.5991    5.6200    0.0000 C   0  0  0  0  0  0  0  0  0  0  0  0
    4.8671    6.6200    0.0000 C   0  0  0  0  0  0  0  0  0  0  0  0
    7.4651   15.9669    0.0000 C   0  0  1  0  0  0  0  0  0  0  0  0
    6.5991   15.4669    0.0000 C   0  0  1  0  0  0  0  0  0  0  0  0
    6.5991   17.4669    0.0000 C   0  0  2  0  0  0  0  0  0  0  0  0
    6.5991   18.4669    0.0000 C   0  0  1  0  0  0  0  0  0  0  0  0
    5.7331   18.9669    0.0000 C   0  0  2  0  0  0  0  0  0  0  0  0
    8.3312   15.4669    0.0000 C   0  0  1  0  0  0  0  0  0  0  0  0
    4.8671   18.4669    0.0000 C   0  0  1  0  0  0  0  0  0  0  0  0
    6.5991   14.4669    0.0000 C   0  0  2  0  0  0  0  0  0  0  0  0
    4.8671   17.4669    0.0000 C   0  0  1  0  0  0  0  0  0  0  0  0
    7.4651   13.9669    0.0000 C   0  0  1  0  0  0  0  0  0  0  0  0
    9.1972    2.1200    0.0000 C   0  0  0  0  0  0  0  0  0  0  0  0
    4.0010    2.1200    0.0000 C   0  0  0  0  0  0  0  0  0  0  0  0
    2.2690    4.1200    0.0000 C   0  0  0  0  0  0  0  0  0  0  0  0
    3.1350    6.6200    0.0000 C   0  0  0  0  0  0  0  0  0  0  0  0
   10.9292    4.1200    0.0000 C   0  0  0  0  0  0  0  0  0  0  0  0
    9.1972   15.9669    0.0000 C   0  0  0  0  0  0  0  0  0  0  0  0
   10.0632    6.6200    0.0000 C   0  0  0  0  0  0  0  0  0  0  0  0
    4.0010   16.9669    0.0000 C   0  0  0  0  0  0  0  0  0  0  0  0
    9.1972    1.1200    0.0000 C   0  0  3  0  0  0  0  0  0  0  0  0
    4.0010    1.1200    0.0000 C   0  0  3  0  0  0  0  0  0  0  0  0
    1.4030    3.6200    0.0000 C   0  0  3  0  0  0  0  0  0  0  0  0
    2.2690    7.1200    0.0000 C   0  0  3  0  0  0  0  0  0  0  0  0
   11.7953    3.6200    0.0000 C   0  0  3  0  0  0  0  0  0  0  0  0
    7.4651    7.1200    0.0000 C   0  0  0  0  0  0  0  0  0  0  0  0
    4.0010    8.1200    0.0000 C   0  0  0  0  0  0  0  0  0  0  0  0
   10.9292    7.1200    0.0000 C   0  0  3  0  0  0  0  0  0  0  0  0
    8.3312    0.6200    0.0000 C   0  0  0  0  0  0  0  0  0  0  0  0
    4.8671    0.6200    0.0000 C   0  0  0  0  0  0  0  0  0  0  0  0
    7.4651    8.1200    0.0000 C   0  0  3  0  0  0  0  0  0  0  0  0
    1.4030    2.6200    0.0000 C   0  0  0  0  0  0  0  0  0  0  0  0
    4.8671   15.4669    0.0000 C   0  0  0  0  0  0  0  0  0  0  0  0
    1.4030    6.6200    0.0000 C   0  0  0  0  0  0  0  0  0  0  0  0
    4.8671    8.6200    0.0000 C   0  0  3  0  0  0  0  0  0  0  0  0
    7.4651   19.9669    0.0000 C   0  0  0  0  0  0  0  0  0  0  0  0
    4.8671   20.4669    0.0000 C   0  0  0  0  0  0  0  0  0  0  0  0
   11.7953    2.6200    0.0000 C   0  0  0  0  0  0  0  0  0  0  0  0
    3.1350   18.4669    0.0000 C   0  0  0  0  0  0  0  0  0  0  0  0
    5.7331   12.9669    0.0000 C   0  0  0  0  0  0  0  0  0  0  0  0
   11.7953    6.6200    0.0000 C   0  0  0  0  0  0  0  0  0  0  0  0
    8.3312   12.4669    0.0000 C   0  0  0  0  0  0  0  0  0  0  0  0
    6.5991    8.6200    0.0000 C   0  0  0  0  0  0  0  0  0  0  0  0
   10.9292   15.9669    0.0000 C   0  0  0  0  0  0  0  0  0  0  0  0
    5.7331    8.1200    0.0000 C   0  0  0  0  0  0  0  0  0  0  0  0
    2.2690   16.9669    0.0000 C   0  0  0  0  0  0  0  0  0  0  0  0
    7.4651    3.5000    0.0000 H   0  0  0  0  0  0  0  0  0  0  0  0
    8.8681    3.3100    0.0000 H   0  0  0  0  0  0  0  0  0  0  0  0
    4.3301    3.3100    0.0000 H   0  0  0  0  0  0  0  0  0  0  0  0
    3.4641    4.4300    0.0000 H   0  0  0  0  0  0  0  0  0  0  0  0
    5.7331    3.5000    0.0000 H   0  0  0  0  0  0  0  0  0  0  0  0
    3.4641    4.8100    0.0000 H   0  0  0  0  0  0  0  0  0  0  0  0
    7.4651    5.7400    0.0000 H   0  0  0  0  0  0  0  0  0  0  0  0
    9.1972    3.5000    0.0000 H   0  0  0  0  0  0  0  0  0  0  0  0
    5.4040    5.9300    0.0000 H   0  0  0  0  0  0  0  0  0  0  0  0
    9.7341    4.8100    0.0000 H   0  0  0  0  0  0  0  0  0  0  0  0
    5.9885    5.7277    0.0000 H   0  0  0  0  0  0  0  0  0  0  0  0
    6.3871    5.0374    0.0000 H   0  0  0  0  0  0  0  0  0  0  0  0
    5.4776    6.5123    0.0000 H   0  0  0  0  0  0  0  0  0  0  0  0
    5.0791    7.2026    0.0000 H   0  0  0  0  0  0  0  0  0  0  0  0
    8.0021   16.2769    0.0000 H   0  0  0  0  0  0  0  0  0  0  0  0
    6.5991   16.0869    0.0000 H   0  0  0  0  0  0  0  0  0  0  0  0
    6.5991   16.8469    0.0000 H   0  0  0  0  0  0  0  0  0  0  0  0
    6.5991   19.0869    0.0000 H   0  0  0  0  0  0  0  0  0  0  0  0
    5.1962   19.2769    0.0000 H   0  0  0  0  0  0  0  0  0  0  0  0
    8.8681   15.1569    0.0000 H   0  0  0  0  0  0  0  0  0  0  0  0
    4.3301   18.1569    0.0000 H   0  0  0  0  0  0  0  0  0  0  0  0
    6.0622   14.7769    0.0000 H   0  0  0  0  0  0  0  0  0  0  0  0
    4.8671   16.8469    0.0000 H   0  0  0  0  0  0  0  0  0  0  0  0
    6.9282   13.6569    0.0000 H   0  0  0  0  0  0  0  0  0  0  0  0
    9.8078    2.0123    0.0000 H   0  0  0  0  0  0  0  0  0  0  0  0
    9.4092    2.7026    0.0000 H   0  0  0  0  0  0  0  0  0  0  0  0
    3.7890    2.7026    0.0000 H   0  0  0  0  0  0  0  0  0  0  0  0
    3.3905    2.0123    0.0000 H   0  0  0  0  0  0  0  0  0  0  0  0
    2.6675    4.5950    0.0000 H   0  0  0  0  0  0  0  0  0  0  0  0
    1.8705    4.5950    0.0000 H   0  0  0  0  0  0  0  0  0  0  0  0
    3.7456    6.5123    0.0000 H   0  0  0  0  0  0  0  0  0  0  0  0
    3.3471    7.2026    0.0000 H   0  0  0  0  0  0  0  0  0  0  0  0
   11.3278    4.5950    0.0000 H   0  0  0  0  0  0  0  0  0  0  0  0
   10.5307    4.5950    0.0000 H   0  0  0  0  0  0  0  0  0  0  0  0
    9.5957   16.4419    0.0000 H   0  0  0  0  0  0  0  0  0  0  0  0
    8.7987   16.4419    0.0000 H   0  0  0  0  0  0  0  0  0  0  0  0
    3.6025   16.4920    0.0000 H   0  0  0  0  0  0  0  0  0  0  0  0
    4.3996   16.4920    0.0000 H   0  0  0  0  0  0  0  0  0  0  0  0
    9.8512    7.2026    0.0000 H   0  0  0  0  0  0  0  0  0  0  0  0
    9.4526    6.5123    0.0000 H   0  0  0  0  0  0  0  0  0  0  0  0
    9.1972    0.5000    0.0000 H   0  0  0  0  0  0  0  0  0  0  0  0
    4.0010    0.5000    0.0000 H   0  0  0  0  0  0  0  0  0  0  0  0
    1.4030    4.2400    0.0000 H   0  0  0  0  0  0  0  0  0  0  0  0
    2.8059    7.4300    0.0000 H   0  0  0  0  0  0  0  0  0  0  0  0
   12.3322    3.3100    0.0000 H   0  0  0  0  0  0  0  0  0  0  0  0
    7.6772    6.5374    0.0000 H   0  0  0  0  0  0  0  0  0  0  0  0
    8.0757    7.2277    0.0000 H   0  0  0  0  0  0  0  0  0  0  0  0
    3.7890    8.7026    0.0000 H   0  0  0  0  0  0  0  0  0  0  0  0
    3.3905    8.0123    0.0000 H   0  0  0  0  0  0  0  0  0  0  0  0
   10.3923    7.4300    0.0000 H   0  0  0  0  0  0  0  0  0  0  0  0
    8.0212    1.1569    0.0000 H   0  0  0  0  0  0  0  0  0  0  0  0
    7.7942    0.3100    0.0000 H   0  0  0  0  0  0  0  0  0  0  0  0
    8.6412    0.0831    0.0000 H   0  0  0  0  0  0  0  0  0  0  0  0
    4.5571    0.0831    0.0000 H   0  0  0  0  0  0  0  0  0  0  0  0
    5.4040    0.3100    0.0000 H   0  0  0  0  0  0  0  0  0  0  0  0
    5.1771    1.1569    0.0000 H   0  0  0  0  0  0  0  0  0  0  0  0
    8.0021    7.8100    0.0000 H   0  0  0  0  0  0  0  0  0  0  0  0
    0.7830    2.6200    0.0000 H   0  0  0  0  0  0  0  0  0  0  0  0
    1.4030    2.0000    0.0000 H   0  0  0  0  0  0  0  0  0  0  0  0
    2.0230    2.6200    0.0000 H   0  0  0  0  0  0  0  0  0  0  0  0
    4.5571   16.0039    0.0000 H   0  0  0  0  0  0  0  0  0  0  0  0
    4.3301   15.1569    0.0000 H   0  0  0  0  0  0  0  0  0  0  0  0
    5.1771   14.9300    0.0000 H   0  0  0  0  0  0  0  0  0  0  0  0
    1.0930    7.1569    0.0000 H   0  0  0  0  0  0  0  0  0  0  0  0
    0.8660    6.3100    0.0000 H   0  0  0  0  0  0  0  0  0  0  0  0
    1.7130    6.0831    0.0000 H   0  0  0  0  0  0  0  0  0  0  0  0
    5.4040    8.9300    0.0000 H   0  0  0  0  0  0  0  0  0  0  0  0
    8.0851   19.9669    0.0000 H   0  0  0  0  0  0  0  0  0  0  0  0
    7.4651   20.5869    0.0000 H   0  0  0  0  0  0  0  0  0  0  0  0
    6.8451   19.9669    0.0000 H   0  0  0  0  0  0  0  0  0  0  0  0
    5.1771   21.0039    0.0000 H   0  0  0  0  0  0  0  0  0  0  0  0
    4.3301   20.7769    0.0000 H   0  0  0  0  0  0  0  0  0  0  0  0
    4.5571   19.9300    0.0000 H   0  0  0  0  0  0  0  0  0  0  0  0
   11.1753    2.6200    0.0000 H   0  0  0  0  0  0  0  0  0  0  0  0
   11.7953    2.0000    0.0000 H   0  0  0  0  0  0  0  0  0  0  0  0
   12.4153    2.6200    0.0000 H   0  0  0  0  0  0  0  0  0  0  0  0
    2.8250   19.0039    0.0000 H   0  0  0  0  0  0  0  0  0  0  0  0
    2.5981   18.1569    0.0000 H   0  0  0  0  0  0  0  0  0  0  0  0
    3.4450   17.9300    0.0000 H   0  0  0  0  0  0  0  0  0  0  0  0
    5.1131   12.9669    0.0000 H   0  0  0  0  0  0  0  0  0  0  0  0
    5.7331   12.3469    0.0000 H   0  0  0  0  0  0  0  0  0  0  0  0
    6.3531   12.9669    0.0000 H   0  0  0  0  0  0  0  0  0  0  0  0
   11.4853    6.0831    0.0000 H   0  0  0  0  0  0  0  0  0  0  0  0
   12.3322    6.3100    0.0000 H   0  0  0  0  0  0  0  0  0  0  0  0
   12.1053    7.1569    0.0000 H   0  0  0  0  0  0  0  0  0  0  0  0
   10.0632    0.0000    0.0000 H   0  0  0  0  0  0  0  0  0  0  0  0
    8.0212   11.9300    0.0000 H   0  0  0  0  0  0  0  0  0  0  0  0
    8.8681   12.1569    0.0000 H   0  0  0  0  0  0  0  0  0  0  0  0
    8.6412   13.0039    0.0000 H   0  0  0  0  0  0  0  0  0  0  0  0
    3.1350    0.0000    0.0000 H   0  0  0  0  0  0  0  0  0  0  0  0
    0.0000    3.8100    0.0000 H   0  0  0  0  0  0  0  0  0  0  0  0
    1.7320    8.4300    0.0000 H   0  0  0  0  0  0  0  0  0  0  0  0
   13.1982    3.8100    0.0000 H   0  0  0  0  0  0  0  0  0  0  0  0
    6.9091    9.1569    0.0000 H   0  0  0  0  0  0  0  0  0  0  0  0
    6.0622    8.9300    0.0000 H   0  0  0  0  0  0  0  0  0  0  0  0
    6.2891    8.0831    0.0000 H   0  0  0  0  0  0  0  0  0  0  0  0
   11.2392   15.4300    0.0000 H   0  0  0  0  0  0  0  0  0  0  0  0
   11.4662   16.2769    0.0000 H   0  0  0  0  0  0  0  0  0  0  0  0
   10.6192   16.5039    0.0000 H   0  0  0  0  0  0  0  0  0  0  0  0
    5.4231    7.5831    0.0000 H   0  0  0  0  0  0  0  0  0  0  0  0
    6.2700    7.8100    0.0000 H   0  0  0  0  0  0  0  0  0  0  0  0
    6.0431    8.6569    0.0000 H   0  0  0  0  0  0  0  0  0  0  0  0
   11.4662    8.4300    0.0000 H   0  0  0  0  0  0  0  0  0  0  0  0
    1.9590   17.5039    0.0000 H   0  0  0  0  0  0  0  0  0  0  0  0
    1.7320   16.6569    0.0000 H   0  0  0  0  0  0  0  0  0  0  0  0
    2.5790   16.4300    0.0000 H   0  0  0  0  0  0  0  0  0  0  0  0
    8.3312    9.2400    0.0000 H   0  0  0  0  0  0  0  0  0  0  0  0
    4.3301    9.9300    0.0000 H   0  0  0  0  0  0  0  0  0  0  0  0
 31  1  1  6  0  0  0
 35  1  1  1  0  0  0
  2 35  1  0  0  0  0
  2 39  1  0  0  0  0
  3 37  1  0  0  0  0
  3 40  1  0  0  0  0
 32  4  1  1  0  0  0
  4 53  1  0  0  0  0
 33  5  1  6  0  0  0
  5 54  1  0  0  0  0
 34  6  1  1  0  0  0
  6 55  1  0  0  0  0
 36  7  1  6  0  0  0
  7 56  1  0  0  0  0
 38  8  1  6  0  0  0
  8 57  1  0  0  0  0
 40  9  1  1  0  0  0
  9 59  1  0  0  0  0
 43 10  1  6  0  0  0
 45 10  1  6  0  0  0
 11 45  1  0  0  0  0
 11 51  1  0  0  0  0
 12 48  1  0  0  0  0
 12 52  1  0  0  0  0
 13 41  1  0  0  0  0
 13 66  1  0  0  0  0
 14 42  1  0  0  0  0
 14 67  1  0  0  0  0
 44 15  1  1  0  0  0
 15 73  1  0  0  0  0
 46 16  1  1  0  0  0
 16 76  1  0  0  0  0
 47 17  1  6  0  0  0
 17 77  1  0  0  0  0
 49 18  1  1  0  0  0
 18 79  1  0  0  0  0
 50 19  1  6  0  0  0
 19 80  1  0  0  0  0
 52 20  1  1  0  0  0
 20 82  1  0  0  0  0
 21 58  1  0  0  0  0
 21 84  1  0  0  0  0
 22 60  1  0  0  0  0
 22 86  1  0  0  0  0
 23 61  1  0  0  0  0
 23172  1  0  0  0  0
 24 62  1  0  0  0  0
 24176  1  0  0  0  0
 25 63  1  0  0  0  0
 25177  1  0  0  0  0
 26 64  1  0  0  0  0
 26178  1  0  0  0  0
 27 65  1  0  0  0  0
 27179  1  0  0  0  0
 28 68  1  0  0  0  0
 28189  1  0  0  0  0
 29 71  1  0  0  0  0
 29193  1  0  0  0  0
 30 75  1  0  0  0  0
 30194  1  0  0  0  0
 31 32  1  0  0  0  0
 31 37  1  0  0  0  0
 31 87  1  0  0  0  0
 32 38  1  0  0  0  0
 32 88  1  0  0  0  0
 33 34  1  0  0  0  0
 33 35  1  0  0  0  0
 33 89  1  0  0  0  0
 34 36  1  0  0  0  0
 34 90  1  0  0  0  0
 35 91  1  0  0  0  0
 36 39  1  0  0  0  0
 36 92  1  0  0  0  0
 37 41  1  1  0  0  0
 37 93  1  0  0  0  0
 38 40  1  0  0  0  0
 38 94  1  0  0  0  0
 39 42  1  1  0  0  0
 39 95  1  0  0  0  0
 40 96  1  0  0  0  0
 41 97  1  0  0  0  0
 41 98  1  0  0  0  0
 42 99  1  0  0  0  0
 42100  1  0  0  0  0
 43 44  1  0  0  0  0
 43 48  1  0  0  0  0
 43101  1  0  0  0  0
 44 50  1  0  0  0  0
 44102  1  0  0  0  0
 45 46  1  0  0  0  0
 45103  1  0  0  0  0
 46 47  1  0  0  0  0
 46104  1  0  0  0  0
 47 49  1  0  0  0  0
 47105  1  0  0  0  0
 48 58  1  1  0  0  0
 48106  1  0  0  0  0
 49 51  1  0  0  0  0
 49107  1  0  0  0  0
 50 52  1  0  0  0  0
 50108  1  0  0  0  0
 51 60  1  6  0  0  0
 51109  1  0  0  0  0
 52110  1  0  0  0  0
 53 61  1  0  0  0  0
 53111  1  0  0  0  0
 53112  1  0  0  0  0
 54 62  1  0  0  0  0
 54113  1  0  0  0  0
 54114  1  0  0  0  0
 55 63  1  0  0  0  0
 55115  1  0  0  0  0
 55116  1  0  0  0  0
 56 64  1  0  0  0  0
 56117  1  0  0  0  0
 56118  1  0  0  0  0
 57 65  1  0  0  0  0
 57119  1  0  0  0  0
 57120  1  0  0  0  0
 58121  1  0  0  0  0
 58122  1  0  0  0  0
 59 68  1  0  0  0  0
 59125  1  0  0  0  0
 59126  1  0  0  0  0
 60123  1  0  0  0  0
 60124  1  0  0  0  0
 61 69  1  0  0  0  0
 61127  1  0  0  0  0
 62 70  1  0  0  0  0
 62128  1  0  0  0  0
 63 72  1  0  0  0  0
 63129  1  0  0  0  0
 64 74  1  0  0  0  0
 64130  1  0  0  0  0
 65 78  1  0  0  0  0
 65131  1  0  0  0  0
 66 71  1  0  0  0  0
 66132  1  0  0  0  0
 66133  1  0  0  0  0
 67 75  1  0  0  0  0
 67134  1  0  0  0  0
 67135  1  0  0  0  0
 68 81  1  0  0  0  0
 68136  1  0  0  0  0
 69137  1  0  0  0  0
 69138  1  0  0  0  0
 69139  1  0  0  0  0
 70140  1  0  0  0  0
 70141  1  0  0  0  0
 70142  1  0  0  0  0
 71 83  1  0  0  0  0
 71143  1  0  0  0  0
 72144  1  0  0  0  0
 72145  1  0  0  0  0
 72146  1  0  0  0  0
 73147  1  0  0  0  0
 73148  1  0  0  0  0
 73149  1  0  0  0  0
 74150  1  0  0  0  0
 74151  1  0  0  0  0
 74152  1  0  0  0  0
 75 85  1  0  0  0  0
 75153  1  0  0  0  0
 76154  1  0  0  0  0
 76155  1  0  0  0  0
 76156  1  0  0  0  0
 77157  1  0  0  0  0
 77158  1  0  0  0  0
 77159  1  0  0  0  0
 78160  1  0  0  0  0
 78161  1  0  0  0  0
 78162  1  0  0  0  0
 79163  1  0  0  0  0
 79164  1  0  0  0  0
 79165  1  0  0  0  0
 80166  1  0  0  0  0
 80167  1  0  0  0  0
 80168  1  0  0  0  0
 81169  1  0  0  0  0
 81170  1  0  0  0  0
 81171  1  0  0  0  0
 82173  1  0  0  0  0
 82174  1  0  0  0  0
 82175  1  0  0  0  0
 83180  1  0  0  0  0
 83181  1  0  0  0  0
 83182  1  0  0  0  0
 84183  1  0  0  0  0
 84184  1  0  0  0  0
 84185  1  0  0  0  0
 85186  1  0  0  0  0
 85187  1  0  0  0  0
 85188  1  0  0  0  0
 86190  1  0  0  0  0
 86191  1  0  0  0  0
 86192  1  0  0  0  0
M  END
> <PUBCHEM_COMPOUND_CID>
57503849

> <PUBCHEM_COMPOUND_CANONICALIZED>
1

> <PUBCHEM_CACTVS_COMPLEXITY>
1480

> <PUBCHEM_CACTVS_HBOND_ACCEPTOR>
30

> <PUBCHEM_CACTVS_HBOND_DONOR>
8

> <PUBCHEM_CACTVS_ROTATABLE_BOND>
40

> <PUBCHEM_CACTVS_SUBSKEYS>
AAADcfB8PgAAAAAAAAAAAAAAAAAAAAAAAAAkSJEgAAAAAAAAAAAAGgAACAAACBSwgAMCCAAABgAAAAAAAAAAAAAAAAAAAAAAAAAREAIAAAAiAAAFAAAHAAHAYAwAAAAAAAAAAAAAAAAAAAAAAAAAAAAAAA==

> <PUBCHEM_IUPAC_OPENEYE_NAME>
(2R,3R,4S,5R,6R)-2,3,4-trimethoxy-6-(methoxymethyl)-5-[(2S,3R,4S,5R,6R)-3,4,5-trimethoxy-6-(methoxymethyl)tetrahydropyran-2-yl]oxy-tetrahydropyran;1-[[(2R,3R,4S,5R,6S)-3,4,5-tris(2-hydroxypropoxy)-6-[(2R,3R,4S,5R,6R)-4,5,6-tris(2-hydroxypropoxy)-2-(2-hydroxypropoxymethyl)tetrahydropyran-3-yl]oxy-tetrahydropyran-2-yl]methoxy]propan-2-ol

> <PUBCHEM_IUPAC_CAS_NAME>
(2R,3R,4S,5R,6R)-2,3,4-trimethoxy-6-(methoxymethyl)-5-[[(2S,3R,4S,5R,6R)-3,4,5-trimethoxy-6-(methoxymethyl)-2-oxanyl]oxy]oxane;1-[[(2R,3R,4S,5R,6S)-3,4,5-tris(2-hydroxypropoxy)-6-[[(2R,3R,4S,5R,6R)-4,5,6-tris(2-hydroxypropoxy)-2-(2-hydroxypropoxymethyl)-3-oxanyl]oxy]-2-oxanyl]methoxy]-2-propanol

> <PUBCHEM_IUPAC_NAME_MARKUP>
(2<I>R</I>,3<I>R</I>,4<I>S</I>,5<I>R</I>,6<I>R</I>)-2,3,4-trimethoxy-6-(methoxymethyl)-5-[(2<I>S</I>,3<I>R</I>,4<I>S</I>,5<I>R</I>,6<I>R</I>)-3,4,5-trimethoxy-6-(methoxymethyl)oxan-2-yl]oxyoxane;1-[[(2<I>R</I>,3<I>R</I>,4<I>S</I>,5<I>R</I>,6<I>S</I>)-3,4,5-tris(2-hydroxypropoxy)-6-[(2<I>R</I>,3<I>R</I>,4<I>S</I>,5<I>R</I>,6<I>R</I>)-4,5,6-tris(2-hydroxypropoxy)-2-(2-hydroxypropoxymethyl)oxan-3-yl]oxyoxan-2-yl]methoxy]propan-2-ol

> <PUBCHEM_IUPAC_NAME>
(2R,3R,4S,5R,6R)-2,3,4-trimethoxy-6-(methoxymethyl)-5-[(2S,3R,4S,5R,6R)-3,4,5-trimethoxy-6-(methoxymethyl)oxan-2-yl]oxyoxane;1-[[(2R,3R,4S,5R,6S)-3,4,5-tris(2-hydroxypropoxy)-6-[(2R,3R,4S,5R,6R)-4,5,6-tris(2-hydroxypropoxy)-2-(2-hydroxypropoxymethyl)oxan-3-yl]oxyoxan-2-yl]methoxy]propan-2-ol

> <PUBCHEM_IUPAC_SYSTEMATIC_NAME>
(2R,3R,4S,5R,6R)-2,3,4-trimethoxy-6-(methoxymethyl)-5-[(2S,3R,4S,5R,6R)-3,4,5-trimethoxy-6-(methoxymethyl)oxan-2-yl]oxy-oxane;1-[[(2R,3R,4S,5R,6S)-3,4,5-tris(2-oxidanylpropoxy)-6-[(2R,3R,4S,5R,6R)-4,5,6-tris(2-oxidanylpropoxy)-2-(2-oxidanylpropoxymethyl)oxan-3-yl]oxy-oxan-2-yl]methoxy]propan-2-ol

> <PUBCHEM_IUPAC_TRADITIONAL_NAME>
(2R,3R,4S,5R,6R)-2,3,4-trimethoxy-6-(methoxymethyl)-5-[(2S,3R,4S,5R,6R)-3,4,5-trimethoxy-6-(methoxymethyl)tetrahydropyran-2-yl]oxy-tetrahydropyran;1-[[(2R,3R,4S,5R,6S)-3,4,5-tris(2-hydroxypropoxy)-6-[(2R,3R,4S,5R,6R)-4,5,6-tris(2-hydroxypropoxy)-2-(2-hydroxypropoxymethyl)tetrahydropyran-3-yl]oxy-tetrahydropyran-2-yl]methoxy]propan-2-ol

> <PUBCHEM_IUPAC_INCHI>
InChI=1S/C36H70O19.C20H38O11/c1-19(37)9-45-17-27-29(47-11-21(3)39)31(48-12-22(4)40)34(51-15-25(7)43)36(54-27)55-30-28(18-46-10-20(2)38)53-35(52-16-26(8)44)33(50-14-24(6)42)32(30)49-13-23(5)41;1-21-9-11-13(23-3)15(24-4)18(27-7)20(30-11)31-14-12(10-22-2)29-19(28-8)17(26-6)16(14)25-5/h19-44H,9-18H2,1-8H3;11-20H,9-10H2,1-8H3/t19?,20?,21?,22?,23?,24?,25?,26?,27-,28-,29-,30-,31+,32+,33-,34-,35-,36+;11-,12-,13-,14-,15+,16+,17-,18-,19-,20+/m11/s1

> <PUBCHEM_IUPAC_INCHIKEY>
PUSNGFYSTWMJSK-GSZQVNRLSA-N

> <PUBCHEM_EXACT_MASS>
1260.69254202

> <PUBCHEM_MOLECULAR_FORMULA>
C56H108O30

> <PUBCHEM_MOLECULAR_WEIGHT>
1261.4

> <PUBCHEM_OPENEYE_CAN_SMILES>
CC(COCC1C(C(C(C(O1)OC2C(OC(C(C2OCC(C)O)OCC(C)O)OCC(C)O)COCC(C)O)OCC(C)O)OCC(C)O)OCC(C)O)O.COCC1C(C(C(C(O1)OC2C(OC(C(C2OC)OC)OC)COC)OC)OC)OC

> <PUBCHEM_OPENEYE_ISO_SMILES>
CC(COC[C@@H]1[C@H]([C@@H]([C@H]([C@@H](O1)O[C@@H]2[C@H](O[C@H]([C@@H]([C@H]2OCC(C)O)OCC(C)O)OCC(C)O)COCC(C)O)OCC(C)O)OCC(C)O)OCC(C)O)O.COC[C@@H]1[C@H]([C@@H]([C@H]([C@@H](O1)O[C@@H]2[C@H](O[C@H]([C@@H]([C@H]2OC)OC)OC)COC)OC)OC)OC

> <PUBCHEM_CACTVS_TPSA>
365

> <PUBCHEM_MONOISOTOPIC_WEIGHT>
1260.69254202

> <PUBCHEM_TOTAL_CHARGE>
0

> <PUBCHEM_HEAVY_ATOM_COUNT>
86

> <PUBCHEM_ATOM_DEF_STEREO_COUNT>
20

> <PUBCHEM_ATOM_UDEF_STEREO_COUNT>
8

> <PUBCHEM_BOND_DEF_STEREO_COUNT>
0

> <PUBCHEM_BOND_UDEF_STEREO_COUNT>
0

> <PUBCHEM_ISOTOPIC_ATOM_COUNT>
0

> <PUBCHEM_COMPONENT_COUNT>
2

> <PUBCHEM_CACTVS_TAUTO_COUNT>
1

> <PUBCHEM_COORDINATE_TYPE>
1
5
255

> <PUBCHEM_BONDANNOTATIONS>
31  1  6
35  1  5
43  10  6
45  10  6
44  15  5
46  16  5
47  17  6
49  18  5
50  19  6
52  20  5
61  23  3
62  24  3
63  25  3
64  26  3
65  27  3
68  28  3
71  29  3
75  30  3
37  41  5
39  42  5
32  4  5
48  58  5
33  5  6
51  60  6
34  6  5
36  7  6
38  8  6
40  9  5

$$$$
