121950
  -OEChem-12122310172D

 41 37  0     1  0  0  0  0  0999 V2000
    6.2089    2.1200    0.0000 O   0  0  0  0  0  0  0  0  0  0  0  0
    8.8070    1.6200    0.0000 O   0  0  0  0  0  0  0  0  0  0  0  0
    5.3429    9.1688    0.0000 O   0  0  0  0  0  0  0  0  0  0  0  0
    9.6730    8.6688    0.0000 O   0  0  0  0  0  0  0  0  0  0  0  0
    6.2089    7.6688    0.0000 O   0  0  0  0  0  0  0  0  0  0  0  0
    8.8070   10.1688    0.0000 O   0  0  0  0  0  0  0  0  0  0  0  0
    2.2690    5.5659    0.0000 O   0  0  0  0  0  0  0  0  0  0  0  0
    1.4030    4.0659    0.0000 O   0  0  0  0  0  0  0  0  0  0  0  0
    7.0749    4.6319    0.0000 O   0  0  0  0  0  0  0  0  0  0  0  0
    7.0749    1.6200    0.0000 C   0  0  3  0  0  0  0  0  0  0  0  0
    7.9409    2.1200    0.0000 C   0  0  0  0  0  0  0  0  0  0  0  0
    7.0749    0.6200    0.0000 C   0  0  0  0  0  0  0  0  0  0  0  0
    7.0749    9.1688    0.0000 C   0  0  0  0  0  0  0  0  0  0  0  0
    7.9409    8.6688    0.0000 C   0  0  0  0  0  0  0  0  0  0  0  0
    6.2089    8.6688    0.0000 C   0  0  0  0  0  0  0  0  0  0  0  0
    8.8070    9.1688    0.0000 C   0  0  0  0  0  0  0  0  0  0  0  0
    0.5369    5.5659    0.0000 C   0  0  0  0  0  0  0  0  0  0  0  0
    1.4030    5.0659    0.0000 C   0  0  0  0  0  0  0  0  0  0  0  0
    7.9409    5.1319    0.0000 C   0  0  0  0  0  0  0  0  0  0  0  0
    7.0749    2.2400    0.0000 H   0  0  0  0  0  0  0  0  0  0  0  0
    8.3395    2.5950    0.0000 H   0  0  0  0  0  0  0  0  0  0  0  0
    7.5424    2.5950    0.0000 H   0  0  0  0  0  0  0  0  0  0  0  0
    6.4549    0.6200    0.0000 H   0  0  0  0  0  0  0  0  0  0  0  0
    7.0749    0.0000    0.0000 H   0  0  0  0  0  0  0  0  0  0  0  0
    7.6949    0.6200    0.0000 H   0  0  0  0  0  0  0  0  0  0  0  0
    7.4734    9.6438    0.0000 H   0  0  0  0  0  0  0  0  0  0  0  0
    6.6764    9.6438    0.0000 H   0  0  0  0  0  0  0  0  0  0  0  0
    7.5424    8.1939    0.0000 H   0  0  0  0  0  0  0  0  0  0  0  0
    8.3395    8.1939    0.0000 H   0  0  0  0  0  0  0  0  0  0  0  0
    5.6720    1.8100    0.0000 H   0  0  0  0  0  0  0  0  0  0  0  0
    9.3439    1.9300    0.0000 H   0  0  0  0  0  0  0  0  0  0  0  0
    4.8059    8.8588    0.0000 H   0  0  0  0  0  0  0  0  0  0  0  0
   10.2099    8.9788    0.0000 H   0  0  0  0  0  0  0  0  0  0  0  0
    0.8469    6.1029    0.0000 H   0  0  0  0  0  0  0  0  0  0  0  0
    0.0000    5.8759    0.0000 H   0  0  0  0  0  0  0  0  0  0  0  0
    0.2269    5.0290    0.0000 H   0  0  0  0  0  0  0  0  0  0  0  0
    2.8059    5.2559    0.0000 H   0  0  0  0  0  0  0  0  0  0  0  0
    8.2509    4.5950    0.0000 H   0  0  0  0  0  0  0  0  0  0  0  0
    8.4779    5.4419    0.0000 H   0  0  0  0  0  0  0  0  0  0  0  0
    7.6309    5.6688    0.0000 H   0  0  0  0  0  0  0  0  0  0  0  0
    6.5380    4.9419    0.0000 H   0  0  0  0  0  0  0  0  0  0  0  0
  1 10  1  0  0  0  0
  1 30  1  0  0  0  0
  2 11  1  0  0  0  0
  2 31  1  0  0  0  0
  3 15  1  0  0  0  0
  3 32  1  0  0  0  0
  4 16  1  0  0  0  0
  4 33  1  0  0  0  0
  5 15  2  0  0  0  0
  6 16  2  0  0  0  0
  7 18  1  0  0  0  0
  7 37  1  0  0  0  0
  8 18  2  0  0  0  0
  9 19  1  0  0  0  0
  9 41  1  0  0  0  0
 10 11  1  0  0  0  0
 10 12  1  0  0  0  0
 10 20  1  0  0  0  0
 11 21  1  0  0  0  0
 11 22  1  0  0  0  0
 12 23  1  0  0  0  0
 12 24  1  0  0  0  0
 12 25  1  0  0  0  0
 13 14  1  0  0  0  0
 13 15  1  0  0  0  0
 13 26  1  0  0  0  0
 13 27  1  0  0  0  0
 14 16  1  0  0  0  0
 14 28  1  0  0  0  0
 14 29  1  0  0  0  0
 17 18  1  0  0  0  0
 17 34  1  0  0  0  0
 17 35  1  0  0  0  0
 17 36  1  0  0  0  0
 19 38  1  0  0  0  0
 19 39  1  0  0  0  0
 19 40  1  0  0  0  0
M  END
> <PUBCHEM_COMPOUND_CID>
121950

> <PUBCHEM_COMPOUND_CANONICALIZED>
1

> <PUBCHEM_CACTVS_COMPLEXITY>
147

> <PUBCHEM_CACTVS_HBOND_ACCEPTOR>
9

> <PUBCHEM_CACTVS_HBOND_DONOR>
6

> <PUBCHEM_CACTVS_ROTATABLE_BOND>
4

> <PUBCHEM_CACTVS_SUBSKEYS>
AAADceBwPAAAAAAAAAAAAAAAAAAAAAAAAAAAAAAAAAAAAAAAAAAAGgAACAAACBSggAICCAAAAgAIAACQCAAAAAAAAAAAAAEAAAABEBAAAAAAQAAEAAABAABDAAAAAAAAAAAAAAAAAAAAAAAAAAAAAAAAAA==

> <PUBCHEM_IUPAC_OPENEYE_NAME>
acetic acid;methanol;propane-1,2-diol;succinic acid

> <PUBCHEM_IUPAC_CAS_NAME>
acetic acid;butanedioic acid;methanol;propane-1,2-diol

> <PUBCHEM_IUPAC_NAME_MARKUP>
acetic acid;butanedioic acid;methanol;propane-1,2-diol

> <PUBCHEM_IUPAC_NAME>
acetic acid;butanedioic acid;methanol;propane-1,2-diol

> <PUBCHEM_IUPAC_SYSTEMATIC_NAME>
butanedioic acid;ethanoic acid;methanol;propane-1,2-diol

> <PUBCHEM_IUPAC_TRADITIONAL_NAME>
acetic acid;methanol;propane-1,2-diol;succinic acid

> <PUBCHEM_IUPAC_INCHI>
InChI=1S/C4H6O4.C3H8O2.C2H4O2.CH4O/c5-3(6)1-2-4(7)8;1-3(5)2-4;1-2(3)4;1-2/h1-2H2,(H,5,6)(H,7,8);3-5H,2H2,1H3;1H3,(H,3,4);2H,1H3

> <PUBCHEM_IUPAC_INCHIKEY>
ZUAAPNNKRHMPKG-UHFFFAOYSA-N

> <PUBCHEM_EXACT_MASS>
286.12638228

> <PUBCHEM_MOLECULAR_FORMULA>
C10H22O9

> <PUBCHEM_MOLECULAR_WEIGHT>
286.28

> <PUBCHEM_OPENEYE_CAN_SMILES>
CC(CO)O.CC(=O)O.CO.C(CC(=O)O)C(=O)O

> <PUBCHEM_OPENEYE_ISO_SMILES>
CC(CO)O.CC(=O)O.CO.C(CC(=O)O)C(=O)O

> <PUBCHEM_CACTVS_TPSA>
173

> <PUBCHEM_MONOISOTOPIC_WEIGHT>
286.12638228

> <PUBCHEM_TOTAL_CHARGE>
0

> <PUBCHEM_HEAVY_ATOM_COUNT>
19

> <PUBCHEM_ATOM_DEF_STEREO_COUNT>
0

> <PUBCHEM_ATOM_UDEF_STEREO_COUNT>
1

> <PUBCHEM_BOND_DEF_STEREO_COUNT>
0

> <PUBCHEM_BOND_UDEF_STEREO_COUNT>
0

> <PUBCHEM_ISOTOPIC_ATOM_COUNT>
0

> <PUBCHEM_COMPONENT_COUNT>
4

> <PUBCHEM_CACTVS_TAUTO_COUNT>
-1

> <PUBCHEM_COORDINATE_TYPE>
1
5
255

> <PUBCHEM_BONDANNOTATIONS>
10  1  3

$$$$
