76967078
  -OEChem-12122310242D

 48 44  0     0  0  0  0  0  0999 V2000
   11.1972    0.7500    0.0000 In  0  1  0  0  0  0  0  0  0  0  0  0
   10.3312    1.2500    0.0000 O   0  5  0  0  0  0  0  0  0  0  0  0
    9.4651   -0.2500    0.0000 O   0  0  0  0  0  0  0  0  0  0  0  0
    2.5369    0.7500    0.0000 O   0  5  0  0  0  0  0  0  0  0  0  0
    6.0010    3.7500    0.0000 O   0  5  0  0  0  0  0  0  0  0  0  0
    4.2690   -2.2500    0.0000 O   0  5  0  0  0  0  0  0  0  0  0  0
    8.5991   -3.7500    0.0000 O   0  5  0  0  0  0  0  0  0  0  0  0
    3.4030    2.2500    0.0000 O   0  0  0  0  0  0  0  0  0  0  0  0
    6.8671    2.2500    0.0000 O   0  0  0  0  0  0  0  0  0  0  0  0
    5.1350   -0.7500    0.0000 O   0  0  0  0  0  0  0  0  0  0  0  0
    6.8671   -3.7500    0.0000 O   0  0  0  0  0  0  0  0  0  0  0  0
    7.7331    0.7500    0.0000 N   0  0  0  0  0  0  0  0  0  0  0  0
    5.1350    1.2500    0.0000 N   0  0  0  0  0  0  0  0  0  0  0  0
    6.8671   -1.7500    0.0000 N   0  0  0  0  0  0  0  0  0  0  0  0
    6.8671    1.2500    0.0000 C   0  0  0  0  0  0  0  0  0  0  0  0
    7.7331   -0.2500    0.0000 C   0  0  0  0  0  0  0  0  0  0  0  0
    6.0010    0.7500    0.0000 C   0  0  0  0  0  0  0  0  0  0  0  0
    6.8671   -0.7500    0.0000 C   0  0  0  0  0  0  0  0  0  0  0  0
    8.5991    1.2500    0.0000 C   0  0  0  0  0  0  0  0  0  0  0  0
    4.2690    0.7500    0.0000 C   0  0  0  0  0  0  0  0  0  0  0  0
    5.1350    2.2500    0.0000 C   0  0  0  0  0  0  0  0  0  0  0  0
    6.0010   -2.2500    0.0000 C   0  0  0  0  0  0  0  0  0  0  0  0
    7.7331   -2.2500    0.0000 C   0  0  0  0  0  0  0  0  0  0  0  0
    9.4651    0.7500    0.0000 C   0  0  0  0  0  0  0  0  0  0  0  0
    3.4030    1.2500    0.0000 C   0  0  0  0  0  0  0  0  0  0  0  0
    6.0010    2.7500    0.0000 C   0  0  0  0  0  0  0  0  0  0  0  0
    5.1350   -1.7500    0.0000 C   0  0  0  0  0  0  0  0  0  0  0  0
    7.7331   -3.2500    0.0000 C   0  0  0  0  0  0  0  0  0  0  0  0
    7.2656    1.7250    0.0000 H   0  0  0  0  0  0  0  0  0  0  0  0
    6.4685    1.7250    0.0000 H   0  0  0  0  0  0  0  0  0  0  0  0
    7.9451   -0.8326    0.0000 H   0  0  0  0  0  0  0  0  0  0  0  0
    8.3437   -0.1423    0.0000 H   0  0  0  0  0  0  0  0  0  0  0  0
    5.6025    0.2751    0.0000 H   0  0  0  0  0  0  0  0  0  0  0  0
    6.3996    0.2751    0.0000 H   0  0  0  0  0  0  0  0  0  0  0  0
    6.6550   -0.1674    0.0000 H   0  0  0  0  0  0  0  0  0  0  0  0
    6.2565   -0.8577    0.0000 H   0  0  0  0  0  0  0  0  0  0  0  0
    8.9976    1.7250    0.0000 H   0  0  0  0  0  0  0  0  0  0  0  0
    8.2006    1.7250    0.0000 H   0  0  0  0  0  0  0  0  0  0  0  0
    3.8705    0.2751    0.0000 H   0  0  0  0  0  0  0  0  0  0  0  0
    4.6675    0.2751    0.0000 H   0  0  0  0  0  0  0  0  0  0  0  0
    4.9230    2.8326    0.0000 H   0  0  0  0  0  0  0  0  0  0  0  0
    4.5244    2.1423    0.0000 H   0  0  0  0  0  0  0  0  0  0  0  0
    5.6025   -2.7250    0.0000 H   0  0  0  0  0  0  0  0  0  0  0  0
    6.3996   -2.7250    0.0000 H   0  0  0  0  0  0  0  0  0  0  0  0
    8.3437   -2.3577    0.0000 H   0  0  0  0  0  0  0  0  0  0  0  0
    7.9451   -1.6674    0.0000 H   0  0  0  0  0  0  0  0  0  0  0  0
    2.0000    1.0600    0.0000 H   0  3  0  0  0  0  0  0  0  0  0  0
    3.7320   -1.9400    0.0000 H   0  3  0  0  0  0  0  0  0  0  0  0
  2 24  1  0  0  0  0
  3 24  2  0  0  0  0
  4 25  1  0  0  0  0
  5 26  1  0  0  0  0
  6 27  1  0  0  0  0
  7 28  1  0  0  0  0
  8 25  2  0  0  0  0
  9 26  2  0  0  0  0
 10 27  2  0  0  0  0
 11 28  2  0  0  0  0
 12 15  1  0  0  0  0
 12 16  1  0  0  0  0
 12 19  1  0  0  0  0
 13 17  1  0  0  0  0
 13 20  1  0  0  0  0
 13 21  1  0  0  0  0
 14 18  1  0  0  0  0
 14 22  1  0  0  0  0
 14 23  1  0  0  0  0
 15 17  1  0  0  0  0
 15 29  1  0  0  0  0
 15 30  1  0  0  0  0
 16 18  1  0  0  0  0
 16 31  1  0  0  0  0
 16 32  1  0  0  0  0
 17 33  1  0  0  0  0
 17 34  1  0  0  0  0
 18 35  1  0  0  0  0
 18 36  1  0  0  0  0
 19 24  1  0  0  0  0
 19 37  1  0  0  0  0
 19 38  1  0  0  0  0
 20 25  1  0  0  0  0
 20 39  1  0  0  0  0
 20 40  1  0  0  0  0
 21 26  1  0  0  0  0
 21 41  1  0  0  0  0
 21 42  1  0  0  0  0
 22 27  1  0  0  0  0
 22 43  1  0  0  0  0
 22 44  1  0  0  0  0
 23 28  1  0  0  0  0
 23 45  1  0  0  0  0
 23 46  1  0  0  0  0
M  CHG  8   1   3   2  -1   4  -1   5  -1   6  -1   7  -1  47   1  48   1
M  ISO  1   1 111
M  END
> <PUBCHEM_COMPOUND_CID>
76967078

> <PUBCHEM_COMPOUND_CANONICALIZED>
1

> <PUBCHEM_CACTVS_COMPLEXITY>
454

> <PUBCHEM_CACTVS_HBOND_ACCEPTOR>
13

> <PUBCHEM_CACTVS_HBOND_DONOR>
2

> <PUBCHEM_CACTVS_ROTATABLE_BOND>
11

> <PUBCHEM_CACTVS_SUBSKEYS>
AAADceBzPAAAAAAAAAEAAAAAAAAAAAAAAAAAAAAAAAAAAAAAAAAAHgAAAAAAAADBgAQACAMAAAAIAACQCAAAAAAAAAAAAACIAAACQAAAACAQAAAAAACQAAAAAAAAAAAAAAAAAAAAAAAAAAAAAAAAAAAAAA==

> <PUBCHEM_IUPAC_OPENEYE_NAME>
2-[bis[2-[bis(carboxylatomethyl)amino]ethyl]amino]acetate;hydron;indium-111(3+)

> <PUBCHEM_IUPAC_CAS_NAME>
2-[bis[2-[bis(carboxylatomethyl)amino]ethyl]amino]acetate;hydron;indium-111(3+)

> <PUBCHEM_IUPAC_NAME_MARKUP>
2-[bis[2-[bis(carboxylatomethyl)amino]ethyl]amino]acetate;hydron;indium-111(3+)

> <PUBCHEM_IUPAC_NAME>
2-[bis[2-[bis(carboxylatomethyl)amino]ethyl]amino]acetate;hydron;indium-111(3+)

> <PUBCHEM_IUPAC_SYSTEMATIC_NAME>
2-[bis[2-[bis(2-oxidanidyl-2-oxidanylidene-ethyl)amino]ethyl]amino]ethanoate;hydron;indium-111(3+)

> <PUBCHEM_IUPAC_TRADITIONAL_NAME>
2-[bis[2-[bis(carboxylatomethyl)amino]ethyl]amino]acetate;hydron;indium-111(3+)

> <PUBCHEM_IUPAC_INCHI>
InChI=1S/C14H23N3O10.In/c18-10(19)5-15(1-3-16(6-11(20)21)7-12(22)23)2-4-17(8-13(24)25)9-14(26)27;/h1-9H2,(H,18,19)(H,20,21)(H,22,23)(H,24,25)(H,26,27);/q;+3/p-3/i;1-4

> <PUBCHEM_IUPAC_INCHIKEY>
BLALCKLYSDDAOC-JWFOFJTQSA-K

> <PUBCHEM_EXACT_MASS>
501.01998

> <PUBCHEM_MOLECULAR_FORMULA>
C14H20InN3O10

> <PUBCHEM_MOLECULAR_WEIGHT>
501.23

> <PUBCHEM_OPENEYE_CAN_SMILES>
[H+].[H+].C(CN(CC(=O)[O-])CC(=O)[O-])N(CCN(CC(=O)[O-])CC(=O)[O-])CC(=O)[O-].[In+3]

> <PUBCHEM_OPENEYE_ISO_SMILES>
[H+].[H+].C(CN(CC(=O)[O-])CC(=O)[O-])N(CCN(CC(=O)[O-])CC(=O)[O-])CC(=O)[O-].[111In+3]

> <PUBCHEM_CACTVS_TPSA>
210

> <PUBCHEM_MONOISOTOPIC_WEIGHT>
501.01998

> <PUBCHEM_TOTAL_CHARGE>
0

> <PUBCHEM_HEAVY_ATOM_COUNT>
28

> <PUBCHEM_ATOM_DEF_STEREO_COUNT>
0

> <PUBCHEM_ATOM_UDEF_STEREO_COUNT>
0

> <PUBCHEM_BOND_DEF_STEREO_COUNT>
0

> <PUBCHEM_BOND_UDEF_STEREO_COUNT>
0

> <PUBCHEM_ISOTOPIC_ATOM_COUNT>
1

> <PUBCHEM_COMPONENT_COUNT>
4

> <PUBCHEM_CACTVS_TAUTO_COUNT>
1

> <PUBCHEM_COORDINATE_TYPE>
1
5
255

$$$$
