71306834
  -OEChem-12122309472D

 48 47  0     0  0  0  0  0  0999 V2000
   10.5109    5.8174    0.0000 I   0  0  0  0  0  0  0  0  0  0  0  0
   11.3769    4.3174    0.0000 I   0  0  0  0  0  0  0  0  0  0  0  0
    3.4641    3.0000    0.0000 Cl  0  0  0  0  0  0  0  0  0  0  0  0
    0.0000    3.0000    0.0000 Cl  0  0  0  0  0  0  0  0  0  0  0  0
    1.7320    0.0000    0.0000 Cl  0  0  0  0  0  0  0  0  0  0  0  0
    9.6448    4.3174    0.0000 S   0  0  0  0  0  0  0  0  0  0  0  0
    7.9128    4.3174    0.0000 Na  0  3  0  0  0  0  0  0  0  0  0  0
    1.7320    4.0000    0.0000 O   0  0  0  0  0  0  0  0  0  0  0  0
    2.5981    7.5000    0.0000 O   0  0  0  0  0  0  0  0  0  0  0  0
    8.7788    3.8174    0.0000 O   0  5  0  0  0  0  0  0  0  0  0  0
    9.1448    5.1834    0.0000 O   0  0  0  0  0  0  0  0  0  0  0  0
   10.1449    3.4514    0.0000 O   0  0  0  0  0  0  0  0  0  0  0  0
    3.4641    6.0000    0.0000 N   0  0  0  0  0  0  0  0  0  0  0  0
    4.3301    7.5000    0.0000 N   0  0  0  0  0  0  0  0  0  0  0  0
    5.9128    7.8364    0.0000 N   0  0  0  0  0  0  0  0  0  0  0  0
    4.3301    5.5000    0.0000 C   0  0  0  0  0  0  0  0  0  0  0  0
    2.5981    5.5000    0.0000 C   0  0  0  0  0  0  0  0  0  0  0  0
    4.3301    4.5000    0.0000 C   0  0  0  0  0  0  0  0  0  0  0  0
    2.5981    4.5000    0.0000 C   0  0  0  0  0  0  0  0  0  0  0  0
    3.4641    7.0000    0.0000 C   0  0  0  0  0  0  0  0  0  0  0  0
    5.1962    4.0000    0.0000 C   0  0  0  0  0  0  0  0  0  0  0  0
    1.7320    3.0000    0.0000 C   0  0  0  0  0  0  0  0  0  0  0  0
    4.4347    8.4945    0.0000 C   0  0  0  0  0  0  0  0  0  0  0  0
    5.2437    7.0933    0.0000 C   0  0  0  0  0  0  0  0  0  0  0  0
    5.4128    8.7024    0.0000 C   0  0  0  0  0  0  0  0  0  0  0  0
    2.5981    2.5000    0.0000 C   0  0  0  0  0  0  0  0  0  0  0  0
    0.8660    2.5000    0.0000 C   0  0  0  0  0  0  0  0  0  0  0  0
    2.5981    1.5000    0.0000 C   0  0  0  0  0  0  0  0  0  0  0  0
    0.8660    1.5000    0.0000 C   0  0  0  0  0  0  0  0  0  0  0  0
    1.7320    1.0000    0.0000 C   0  0  0  0  0  0  0  0  0  0  0  0
   10.5109    4.8174    0.0000 C   0  0  0  0  0  0  0  0  0  0  0  0
    4.9407    5.3923    0.0000 H   0  0  0  0  0  0  0  0  0  0  0  0
    4.5422    6.0826    0.0000 H   0  0  0  0  0  0  0  0  0  0  0  0
    2.3860    6.0826    0.0000 H   0  0  0  0  0  0  0  0  0  0  0  0
    1.9875    5.3923    0.0000 H   0  0  0  0  0  0  0  0  0  0  0  0
    3.7196    4.6077    0.0000 H   0  0  0  0  0  0  0  0  0  0  0  0
    4.1181    3.9174    0.0000 H   0  0  0  0  0  0  0  0  0  0  0  0
    2.8101    3.9174    0.0000 H   0  0  0  0  0  0  0  0  0  0  0  0
    3.2087    4.6077    0.0000 H   0  0  0  0  0  0  0  0  0  0  0  0
    4.8862    3.4631    0.0000 H   0  0  0  0  0  0  0  0  0  0  0  0
    5.7331    3.6900    0.0000 H   0  0  0  0  0  0  0  0  0  0  0  0
    5.5062    4.5369    0.0000 H   0  0  0  0  0  0  0  0  0  0  0  0
    3.9739    8.9094    0.0000 H   0  0  0  0  0  0  0  0  0  0  0  0
    5.3726    6.4868    0.0000 H   0  0  0  0  0  0  0  0  0  0  0  0
    5.6650    9.2688    0.0000 H   0  0  0  0  0  0  0  0  0  0  0  0
    3.1350    1.1900    0.0000 H   0  0  0  0  0  0  0  0  0  0  0  0
    0.3291    1.1900    0.0000 H   0  0  0  0  0  0  0  0  0  0  0  0
   10.5109    4.1974    0.0000 H   0  0  0  0  0  0  0  0  0  0  0  0
  1 31  1  0  0  0  0
  2 31  1  0  0  0  0
  3 26  1  0  0  0  0
  4 27  1  0  0  0  0
  5 30  1  0  0  0  0
  6 10  1  0  0  0  0
  6 11  2  0  0  0  0
  6 12  2  0  0  0  0
  6 31  1  0  0  0  0
  8 19  1  0  0  0  0
  8 22  1  0  0  0  0
  9 20  2  0  0  0  0
 13 16  1  0  0  0  0
 13 17  1  0  0  0  0
 13 20  1  0  0  0  0
 14 20  1  0  0  0  0
 14 23  1  0  0  0  0
 14 24  1  0  0  0  0
 15 24  2  0  0  0  0
 15 25  1  0  0  0  0
 16 18  1  0  0  0  0
 16 32  1  0  0  0  0
 16 33  1  0  0  0  0
 17 19  1  0  0  0  0
 17 34  1  0  0  0  0
 17 35  1  0  0  0  0
 18 21  1  0  0  0  0
 18 36  1  0  0  0  0
 18 37  1  0  0  0  0
 19 38  1  0  0  0  0
 19 39  1  0  0  0  0
 21 40  1  0  0  0  0
 21 41  1  0  0  0  0
 21 42  1  0  0  0  0
 22 26  2  0  0  0  0
 22 27  1  0  0  0  0
 23 25  2  0  0  0  0
 23 43  1  0  0  0  0
 24 44  1  0  0  0  0
 25 45  1  0  0  0  0
 26 28  1  0  0  0  0
 27 29  2  0  0  0  0
 28 30  2  0  0  0  0
 28 46  1  0  0  0  0
 29 30  1  0  0  0  0
 29 47  1  0  0  0  0
 31 48  1  0  0  0  0
M  CHG  2   7   1  10  -1
M  END
> <PUBCHEM_COMPOUND_CID>
71306834

> <PUBCHEM_COMPOUND_CANONICALIZED>
1

> <PUBCHEM_CACTVS_COMPLEXITY>
511

> <PUBCHEM_CACTVS_HBOND_ACCEPTOR>
6

> <PUBCHEM_CACTVS_HBOND_DONOR>
0

> <PUBCHEM_CACTVS_ROTATABLE_BOND>
7

> <PUBCHEM_CACTVS_SUBSKEYS>
AAADceB7OCBGAwAAAAAAAAAAAAAAAWAAAAAwAAAAAAAAAAABwAAAHgYgAAAACAbhkia/lpcMFAKoADBndHACiC0xN+AJyAAcO4iObiOFOxqXOCCsxxOYqCeAQAAAACAAAACACAAAQAAAAQAQAAAAAAAAAA==

> <PUBCHEM_IUPAC_OPENEYE_NAME>
sodium;diiodomethanesulfonate;N-propyl-N-[2-(2,4,6-trichlorophenoxy)ethyl]imidazole-1-carboxamide

> <PUBCHEM_IUPAC_CAS_NAME>
sodium;diiodomethanesulfonate;N-propyl-N-[2-(2,4,6-trichlorophenoxy)ethyl]-1-imidazolecarboxamide

> <PUBCHEM_IUPAC_NAME_MARKUP>
sodium;diiodomethanesulfonate;<I>N</I>-propyl-<I>N</I>-[2-(2,4,6-trichlorophenoxy)ethyl]imidazole-1-carboxamide

> <PUBCHEM_IUPAC_NAME>
sodium;diiodomethanesulfonate;N-propyl-N-[2-(2,4,6-trichlorophenoxy)ethyl]imidazole-1-carboxamide

> <PUBCHEM_IUPAC_SYSTEMATIC_NAME>
sodium;bis(iodanyl)methanesulfonate;N-propyl-N-[2-[2,4,6-tris(chloranyl)phenoxy]ethyl]imidazole-1-carboxamide

> <PUBCHEM_IUPAC_TRADITIONAL_NAME>
sodium;diiodomethanesulfonate;N-propyl-N-[2-(2,4,6-trichlorophenoxy)ethyl]imidazole-1-carboxamide

> <PUBCHEM_IUPAC_INCHI>
InChI=1S/C15H16Cl3N3O2.CH2I2O3S.Na/c1-2-4-20(15(22)21-5-3-19-10-21)6-7-23-14-12(17)8-11(16)9-13(14)18;2-1(3)7(4,5)6;/h3,5,8-10H,2,4,6-7H2,1H3;1H,(H,4,5,6);/q;;+1/p-1

> <PUBCHEM_IUPAC_INCHIKEY>
MIXCUJKCXRNYFM-UHFFFAOYSA-M

> <PUBCHEM_EXACT_MASS>
744.79416

> <PUBCHEM_MOLECULAR_FORMULA>
C16H17Cl3I2N3NaO5S

> <PUBCHEM_MOLECULAR_WEIGHT>
746.5

> <PUBCHEM_OPENEYE_CAN_SMILES>
CCCN(CCOC1=C(C=C(C=C1Cl)Cl)Cl)C(=O)N2C=CN=C2.C(S(=O)(=O)[O-])(I)I.[Na+]

> <PUBCHEM_OPENEYE_ISO_SMILES>
CCCN(CCOC1=C(C=C(C=C1Cl)Cl)Cl)C(=O)N2C=CN=C2.C(S(=O)(=O)[O-])(I)I.[Na+]

> <PUBCHEM_CACTVS_TPSA>
113

> <PUBCHEM_MONOISOTOPIC_WEIGHT>
744.79416

> <PUBCHEM_TOTAL_CHARGE>
0

> <PUBCHEM_HEAVY_ATOM_COUNT>
31

> <PUBCHEM_ATOM_DEF_STEREO_COUNT>
0

> <PUBCHEM_ATOM_UDEF_STEREO_COUNT>
0

> <PUBCHEM_BOND_DEF_STEREO_COUNT>
0

> <PUBCHEM_BOND_UDEF_STEREO_COUNT>
0

> <PUBCHEM_ISOTOPIC_ATOM_COUNT>
0

> <PUBCHEM_COMPONENT_COUNT>
3

> <PUBCHEM_CACTVS_TAUTO_COUNT>
1

> <PUBCHEM_NONSTANDARDBOND>
7  10  7

> <PUBCHEM_COORDINATE_TYPE>
1
5
255

> <PUBCHEM_BONDANNOTATIONS>
14  23  8
14  24  8
15  24  8
15  25  8
22  26  8
22  27  8
23  25  8
26  28  8
27  29  8
28  30  8
29  30  8

$$$$
