168318470
  -OEChem-12122309232D

131136  0     1  0  0  0  0  0999 V2000
    3.9769    1.0985    0.0000 Cl  0  0  0  0  0  0  0  0  0  0  0  0
   11.2009   -3.4897    0.0000 S   0  0  0  0  0  0  0  0  0  0  0  0
    7.9789    3.2192    0.0000 O   0  0  0  0  0  0  0  0  0  0  0  0
    8.3654    1.8917    0.0000 O   0  0  0  0  0  0  0  0  0  0  0  0
    9.3104    5.5946    0.0000 O   0  0  0  0  0  0  0  0  0  0  0  0
    7.5783    7.5946    0.0000 O   0  0  0  0  0  0  0  0  0  0  0  0
    6.1387    7.9138    0.0000 O   0  0  0  0  0  0  0  0  0  0  0  0
    6.3536   -0.1125    0.0000 O   0  0  0  0  0  0  0  0  0  0  0  0
   10.1764    7.0946    0.0000 O   0  0  0  0  0  0  0  0  0  0  0  0
    7.5656    0.3554    0.0000 O   0  0  0  0  0  0  0  0  0  0  0  0
   11.0701   -0.4926    0.0000 O   0  0  0  0  0  0  0  0  0  0  0  0
   16.7964   -8.1316    0.0000 O   0  0  0  0  0  0  0  0  0  0  0  0
    2.8660    1.8740    0.0000 O   0  0  0  0  0  0  0  0  0  0  0  0
   13.1479   -2.5190    0.0000 O   0  0  0  0  0  0  0  0  0  0  0  0
   13.6682   -6.0005    0.0000 O   0  0  0  0  0  0  0  0  0  0  0  0
    8.4443    7.0946    0.0000 N   0  0  0  0  0  0  0  0  0  0  0  0
    5.4875    1.3875    0.0000 N   0  0  0  0  0  0  0  0  0  0  0  0
    9.3397   -0.5681    0.0000 N   0  0  0  0  0  0  0  0  0  0  0  0
   13.6838   -4.2185    0.0000 N   0  0  0  0  0  0  0  0  0  0  0  0
   18.1519   -7.0534    0.0000 N   0  0  0  0  0  0  0  0  0  0  0  0
    6.9784    3.2195    0.0000 C   0  0  2  0  0  0  0  0  0  0  0  0
    7.4784    4.0855    0.0000 C   0  0  2  0  0  0  0  0  0  0  0  0
    8.4443    4.0946    0.0000 C   0  0  1  0  0  0  0  0  0  0  0  0
    7.4784    2.3535    0.0000 C   0  0  2  0  0  0  0  0  0  0  0  0
    8.4443    5.0946    0.0000 C   0  0  2  0  0  0  0  0  0  0  0  0
    6.1124    3.7195    0.0000 C   0  0  0  0  0  0  0  0  0  0  0  0
    9.4268    3.9084    0.0000 C   0  0  0  0  0  0  0  0  0  0  0  0
    7.5783    5.5946    0.0000 C   0  0  0  0  0  0  0  0  0  0  0  0
    7.2196    1.3875    0.0000 C   0  0  0  0  0  0  0  0  0  0  0  0
    7.5783    6.5946    0.0000 C   0  0  1  0  0  0  0  0  0  0  0  0
    6.7123    7.0946    0.0000 C   0  0  1  0  0  0  0  0  0  0  0  0
    6.3536    0.8875    0.0000 C   0  0  0  0  0  0  0  0  0  0  0  0
    9.3104    6.5946    0.0000 C   0  0  0  0  0  0  0  0  0  0  0  0
    8.4090    0.8927    0.0000 C   0  0  0  0  0  0  0  0  0  0  0  0
    9.2960    0.4309    0.0000 C   0  0  2  0  0  0  0  0  0  0  0  0
    5.8463    6.5946    0.0000 C   0  0  0  0  0  0  0  0  0  0  0  0
   15.2953   -4.8533    0.0000 C   0  0  0  0  0  0  0  0  0  0  0  0
    5.4875    2.3875    0.0000 C   0  0  0  0  0  0  0  0  0  0  0  0
    5.1455    0.4478    0.0000 C   0  0  0  0  0  0  0  0  0  0  0  0
   10.1394    0.9682    0.0000 C   0  0  0  0  0  0  0  0  0  0  0  0
   14.9288   -5.7838    0.0000 C   0  0  0  0  0  0  0  0  0  0  0  0
   16.2843   -4.7055    0.0000 C   0  0  0  0  0  0  0  0  0  0  0  0
   16.5403   -6.4186    0.0000 C   0  0  0  0  0  0  0  0  0  0  0  0
    4.8803    6.8535    0.0000 C   0  0  0  0  0  0  0  0  0  0  0  0
   15.5513   -6.5664    0.0000 C   0  0  0  0  0  0  0  0  0  0  0  0
   16.9068   -5.4881    0.0000 C   0  0  0  0  0  0  0  0  0  0  0  0
    5.1425    7.8266    0.0000 C   0  0  0  0  0  0  0  0  0  0  0  0
   14.6728   -4.0707    0.0000 C   0  0  0  0  0  0  0  0  0  0  0  0
    4.6215    2.8875    0.0000 C   0  0  0  0  0  0  0  0  0  0  0  0
   10.2267   -1.0299    0.0000 C   0  0  0  0  0  0  0  0  0  0  0  0
    4.6137    1.8695    0.0000 C   0  0  0  0  0  0  0  0  0  0  0  0
    8.4963   -1.1054    0.0000 C   0  0  0  0  0  0  0  0  0  0  0  0
    4.6215    5.8875    0.0000 C   0  0  0  0  0  0  0  0  0  0  0  0
   17.1629   -7.2012    0.0000 C   0  0  0  0  0  0  0  0  0  0  0  0
    4.6215    3.8875    0.0000 C   0  0  0  0  0  0  0  0  0  0  0  0
   12.0879   -3.9515    0.0000 C   0  0  3  0  0  0  0  0  0  0  0  0
   10.2703   -2.0289    0.0000 C   0  0  0  0  0  0  0  0  0  0  0  0
   12.9829   -3.5053    0.0000 C   0  0  0  0  0  0  0  0  0  0  0  0
   13.2220   -5.1055    0.0000 C   0  0  0  0  0  0  0  0  0  0  0  0
   12.2358   -4.9405    0.0000 C   0  0  0  0  0  0  0  0  0  0  0  0
    3.7555    4.3875    0.0000 C   0  0  0  0  0  0  0  0  0  0  0  0
    3.7555    5.3875    0.0000 C   0  0  0  0  0  0  0  0  0  0  0  0
    3.7320    2.3740    0.0000 C   0  0  0  0  0  0  0  0  0  0  0  0
    3.7360    3.3898    0.0000 C   0  0  0  0  0  0  0  0  0  0  0  0
   11.1573   -2.4907    0.0000 C   0  0  0  0  0  0  0  0  0  0  0  0
    2.8895    5.8875    0.0000 C   0  0  0  0  0  0  0  0  0  0  0  0
    2.0000    2.3740    0.0000 C   0  0  0  0  0  0  0  0  0  0  0  0
    6.7402    4.5069    0.0000 H   0  0  0  0  0  0  0  0  0  0  0  0
    8.7475    3.5538    0.0000 H   0  0  0  0  0  0  0  0  0  0  0  0
    8.0512    2.5907    0.0000 H   0  0  0  0  0  0  0  0  0  0  0  0
    9.1805    4.6696    0.0000 H   0  0  0  0  0  0  0  0  0  0  0  0
    6.4224    4.2564    0.0000 H   0  0  0  0  0  0  0  0  0  0  0  0
    5.5754    4.0295    0.0000 H   0  0  0  0  0  0  0  0  0  0  0  0
    5.8024    3.1826    0.0000 H   0  0  0  0  0  0  0  0  0  0  0  0
    9.3114    3.2993    0.0000 H   0  0  0  0  0  0  0  0  0  0  0  0
   10.0360    3.7930    0.0000 H   0  0  0  0  0  0  0  0  0  0  0  0
    9.5423    4.5176    0.0000 H   0  0  0  0  0  0  0  0  0  0  0  0
    6.9677    5.7023    0.0000 H   0  0  0  0  0  0  0  0  0  0  0  0
    7.3663    5.0120    0.0000 H   0  0  0  0  0  0  0  0  0  0  0  0
    7.3801    0.7887    0.0000 H   0  0  0  0  0  0  0  0  0  0  0  0
    7.8396    1.3875    0.0000 H   0  0  0  0  0  0  0  0  0  0  0  0
    6.8728    7.6935    0.0000 H   0  0  0  0  0  0  0  0  0  0  0  0
    8.7543    7.6316    0.0000 H   0  0  0  0  0  0  0  0  0  0  0  0
    7.8883    8.1316    0.0000 H   0  0  0  0  0  0  0  0  0  0  0  0
    9.8460    0.1446    0.0000 H   0  0  0  0  0  0  0  0  0  0  0  0
    5.9272    5.9799    0.0000 H   0  0  0  0  0  0  0  0  0  0  0  0
   14.6821   -4.9450    0.0000 H   0  0  0  0  0  0  0  0  0  0  0  0
    4.5629    0.6599    0.0000 H   0  0  0  0  0  0  0  0  0  0  0  0
    4.9334   -0.1348    0.0000 H   0  0  0  0  0  0  0  0  0  0  0  0
    5.7281    0.2358    0.0000 H   0  0  0  0  0  0  0  0  0  0  0  0
   10.4726    0.4453    0.0000 H   0  0  0  0  0  0  0  0  0  0  0  0
   10.6623    1.3013    0.0000 H   0  0  0  0  0  0  0  0  0  0  0  0
    9.8063    1.4911    0.0000 H   0  0  0  0  0  0  0  0  0  0  0  0
   14.4002   -5.4598    0.0000 H   0  0  0  0  0  0  0  0  0  0  0  0
   14.5180   -6.2481    0.0000 H   0  0  0  0  0  0  0  0  0  0  0  0
   16.8292   -4.4097    0.0000 H   0  0  0  0  0  0  0  0  0  0  0  0
   16.0876   -4.1176    0.0000 H   0  0  0  0  0  0  0  0  0  0  0  0
   17.1535   -6.3269    0.0000 H   0  0  0  0  0  0  0  0  0  0  0  0
   15.0065   -6.8622    0.0000 H   0  0  0  0  0  0  0  0  0  0  0  0
   15.7481   -7.1543    0.0000 H   0  0  0  0  0  0  0  0  0  0  0  0
   17.4355   -5.8121    0.0000 H   0  0  0  0  0  0  0  0  0  0  0  0
   17.3177   -5.0238    0.0000 H   0  0  0  0  0  0  0  0  0  0  0  0
    4.5703    7.3904    0.0000 H   0  0  0  0  0  0  0  0  0  0  0  0
    5.0885    8.4443    0.0000 H   0  0  0  0  0  0  0  0  0  0  0  0
    4.5249    7.7726    0.0000 H   0  0  0  0  0  0  0  0  0  0  0  0
    5.1966    7.2090    0.0000 H   0  0  0  0  0  0  0  0  0  0  0  0
   15.2177   -3.7749    0.0000 H   0  0  0  0  0  0  0  0  0  0  0  0
   14.4761   -3.4828    0.0000 H   0  0  0  0  0  0  0  0  0  0  0  0
    4.0846    2.5775    0.0000 H   0  0  0  0  0  0  0  0  0  0  0  0
    8.1632   -0.5825    0.0000 H   0  0  0  0  0  0  0  0  0  0  0  0
    7.9734   -1.4386    0.0000 H   0  0  0  0  0  0  0  0  0  0  0  0
    8.8294   -1.6283    0.0000 H   0  0  0  0  0  0  0  0  0  0  0  0
    5.1134    5.5101    0.0000 H   0  0  0  0  0  0  0  0  0  0  0  0
   12.0934   -3.3315    0.0000 H   0  0  0  0  0  0  0  0  0  0  0  0
    9.6556   -1.9480    0.0000 H   0  0  0  0  0  0  0  0  0  0  0  0
   10.0839   -2.6202    0.0000 H   0  0  0  0  0  0  0  0  0  0  0  0
   11.6163   -4.9675    0.0000 H   0  0  0  0  0  0  0  0  0  0  0  0
   12.1979   -5.5593    0.0000 H   0  0  0  0  0  0  0  0  0  0  0  0
    3.1449    4.4952    0.0000 H   0  0  0  0  0  0  0  0  0  0  0  0
    3.5434    3.8049    0.0000 H   0  0  0  0  0  0  0  0  0  0  0  0
    3.2014    3.7040    0.0000 H   0  0  0  0  0  0  0  0  0  0  0  0
   11.7720   -2.5716    0.0000 H   0  0  0  0  0  0  0  0  0  0  0  0
   11.3438   -1.8994    0.0000 H   0  0  0  0  0  0  0  0  0  0  0  0
   18.5378   -7.5386    0.0000 H   0  0  0  0  0  0  0  0  0  0  0  0
   18.3791   -6.4765    0.0000 H   0  0  0  0  0  0  0  0  0  0  0  0
    3.1995    6.4245    0.0000 H   0  0  0  0  0  0  0  0  0  0  0  0
    2.3525    6.1975    0.0000 H   0  0  0  0  0  0  0  0  0  0  0  0
    2.5795    5.3506    0.0000 H   0  0  0  0  0  0  0  0  0  0  0  0
    2.3100    2.9109    0.0000 H   0  0  0  0  0  0  0  0  0  0  0  0
    1.4631    2.6840    0.0000 H   0  0  0  0  0  0  0  0  0  0  0  0
    1.6900    1.8371    0.0000 H   0  0  0  0  0  0  0  0  0  0  0  0
  1 51  1  0  0  0  0
  2 56  1  0  0  0  0
  2 65  1  0  0  0  0
  3 21  1  0  0  0  0
  3 22  1  0  0  0  0
 24  4  1  1  0  0  0
  4 34  1  0  0  0  0
  5 25  1  0  0  0  0
  5 33  1  0  0  0  0
 30  6  1  1  0  0  0
  6 84  1  0  0  0  0
 31  7  1  1  0  0  0
  7 47  1  0  0  0  0
  8 32  2  0  0  0  0
  9 33  2  0  0  0  0
 10 34  2  0  0  0  0
 11 50  2  0  0  0  0
 12 54  2  0  0  0  0
 13 63  1  0  0  0  0
 13 67  1  0  0  0  0
 14 58  2  0  0  0  0
 15 59  2  0  0  0  0
 16 30  1  0  0  0  0
 16 33  1  0  0  0  0
 16 83  1  0  0  0  0
 17 32  1  0  0  0  0
 17 38  1  0  0  0  0
 17 39  1  0  0  0  0
 35 18  1  6  0  0  0
 18 50  1  0  0  0  0
 18 52  1  0  0  0  0
 19 48  1  0  0  0  0
 19 58  1  0  0  0  0
 19 59  1  0  0  0  0
 20 54  1  0  0  0  0
 20124  1  0  0  0  0
 20125  1  0  0  0  0
 21 22  1  0  0  0  0
 21 24  1  0  0  0  0
 21 26  1  6  0  0  0
 22 23  1  0  0  0  0
 22 68  1  1  0  0  0
 23 25  1  0  0  0  0
 23 27  1  1  0  0  0
 23 69  1  0  0  0  0
 24 29  1  0  0  0  0
 24 70  1  0  0  0  0
 25 28  1  0  0  0  0
 25 71  1  1  0  0  0
 26 72  1  0  0  0  0
 26 73  1  0  0  0  0
 26 74  1  0  0  0  0
 27 75  1  0  0  0  0
 27 76  1  0  0  0  0
 27 77  1  0  0  0  0
 28 30  1  0  0  0  0
 28 78  1  0  0  0  0
 28 79  1  0  0  0  0
 29 32  1  0  0  0  0
 29 80  1  0  0  0  0
 29 81  1  0  0  0  0
 30 31  1  0  0  0  0
 31 36  1  0  0  0  0
 31 82  1  0  0  0  0
 34 35  1  0  0  0  0
 35 40  1  0  0  0  0
 35 85  1  0  0  0  0
 36 44  2  3  0  0  0
 36 86  1  0  0  0  0
 37 41  1  0  0  0  0
 37 42  1  0  0  0  0
 37 48  1  0  0  0  0
 37 87  1  0  0  0  0
 38 49  1  0  0  0  0
 38 51  2  0  0  0  0
 39 88  1  0  0  0  0
 39 89  1  0  0  0  0
 39 90  1  0  0  0  0
 40 91  1  0  0  0  0
 40 92  1  0  0  0  0
 40 93  1  0  0  0  0
 41 45  1  0  0  0  0
 41 94  1  0  0  0  0
 41 95  1  0  0  0  0
 42 46  1  0  0  0  0
 42 96  1  0  0  0  0
 42 97  1  0  0  0  0
 43 45  1  0  0  0  0
 43 46  1  0  0  0  0
 43 54  1  0  0  0  0
 43 98  1  0  0  0  0
 44 53  1  0  0  0  0
 44103  1  0  0  0  0
 45 99  1  0  0  0  0
 45100  1  0  0  0  0
 46101  1  0  0  0  0
 46102  1  0  0  0  0
 47104  1  0  0  0  0
 47105  1  0  0  0  0
 47106  1  0  0  0  0
 48107  1  0  0  0  0
 48108  1  0  0  0  0
 49 55  2  0  0  0  0
 49109  1  0  0  0  0
 50 57  1  0  0  0  0
 51 63  1  0  0  0  0
 52110  1  0  0  0  0
 52111  1  0  0  0  0
 52112  1  0  0  0  0
 53 62  2  3  0  0  0
 53113  1  0  0  0  0
 55 61  1  0  0  0  0
 55 64  1  0  0  0  0
 56 58  1  0  0  0  0
 56 60  1  0  0  0  0
 56114  1  0  0  0  0
 57 65  1  0  0  0  0
 57115  1  0  0  0  0
 57116  1  0  0  0  0
 59 60  1  0  0  0  0
 60117  1  0  0  0  0
 60118  1  0  0  0  0
 61 62  1  0  0  0  0
 61119  1  0  0  0  0
 61120  1  0  0  0  0
 62 66  1  0  0  0  0
 63 64  2  0  0  0  0
 64121  1  0  0  0  0
 65122  1  0  0  0  0
 65123  1  0  0  0  0
 66126  1  0  0  0  0
 66127  1  0  0  0  0
 66128  1  0  0  0  0
 67129  1  0  0  0  0
 67130  1  0  0  0  0
 67131  1  0  0  0  0
M  END
> <PUBCHEM_COMPOUND_CID>
168318470

> <PUBCHEM_COMPOUND_CANONICALIZED>
1

> <PUBCHEM_CACTVS_COMPLEXITY>
1950

> <PUBCHEM_CACTVS_HBOND_ACCEPTOR>
14

> <PUBCHEM_CACTVS_HBOND_DONOR>
3

> <PUBCHEM_CACTVS_ROTATABLE_BOND>
13

> <PUBCHEM_CACTVS_SUBSKEYS>
AAADcfB/vABEAAAAAAAAAAAAEgAAAWAAAAA8YIAAAAAAAAABAAAAHgYQCAAADX7l2CayzoPABgiIAiXSWACCCAAhJlAIiAGOb4kPJjfls7vPcChn9jn76Af//P/OBAABQgAACBCIAAKEAAAQIAAAAAAAAA==

> <PUBCHEM_IUPAC_OPENEYE_NAME>
[(1S,2R,3S,5S,6S,20R,21S)-11-chloro-21-hydroxy-12,20-dimethoxy-2,5,9,16-tetramethyl-8,23-dioxo-4,24-dioxa-9,22-diazatetracyclo[19.3.1.110,14.03,5]hexacosa-10,12,14(26),16,18-pentaen-6-yl] (2S)-2-[3-[1-[(4-carbamoylcyclohexyl)methyl]-2,5-dioxo-pyrrolidin-3-yl]sulfanylpropanoyl-methyl-amino]propanoate

> <PUBCHEM_IUPAC_CAS_NAME>
(2S)-2-[[3-[[1-[(4-carbamoylcyclohexyl)methyl]-2,5-dioxo-3-pyrrolidinyl]thio]-1-oxopropyl]-methylamino]propanoic acid [(1S,2R,3S,5S,6S,20R,21S)-11-chloro-21-hydroxy-12,20-dimethoxy-2,5,9,16-tetramethyl-8,23-dioxo-4,24-dioxa-9,22-diazatetracyclo[19.3.1.110,14.03,5]hexacosa-10,12,14(26),16,18-pentaen-6-yl] ester

> <PUBCHEM_IUPAC_NAME_MARKUP>
[(1<I>S</I>,2<I>R</I>,3<I>S</I>,5<I>S</I>,6<I>S</I>,20<I>R</I>,21<I>S</I>)-11-chloro-21-hydroxy-12,20-dimethoxy-2,5,9,16-tetramethyl-8,23-dioxo-4,24-dioxa-9,22-diazatetracyclo[19.3.1.1<SUP>10,14</SUP>.0<SUP>3,5</SUP>]hexacosa-10,12,14(26),16,18-pentaen-6-yl] (2<I>S</I>)-2-[3-[1-[(4-carbamoylcyclohexyl)methyl]-2,5-dioxopyrrolidin-3-yl]sulfanylpropanoyl-methylamino]propanoate

> <PUBCHEM_IUPAC_NAME>
[(1S,2R,3S,5S,6S,20R,21S)-11-chloro-21-hydroxy-12,20-dimethoxy-2,5,9,16-tetramethyl-8,23-dioxo-4,24-dioxa-9,22-diazatetracyclo[19.3.1.110,14.03,5]hexacosa-10,12,14(26),16,18-pentaen-6-yl] (2S)-2-[3-[1-[(4-carbamoylcyclohexyl)methyl]-2,5-dioxopyrrolidin-3-yl]sulfanylpropanoyl-methylamino]propanoate

> <PUBCHEM_IUPAC_SYSTEMATIC_NAME>
[(1S,2R,3S,5S,6S,20R,21S)-11-chloranyl-12,20-dimethoxy-2,5,9,16-tetramethyl-21-oxidanyl-8,23-bis(oxidanylidene)-4,24-dioxa-9,22-diazatetracyclo[19.3.1.110,14.03,5]hexacosa-10,12,14(26),16,18-pentaen-6-yl] (2S)-2-[3-[1-[(4-aminocarbonylcyclohexyl)methyl]-2,5-bis(oxidanylidene)pyrrolidin-3-yl]sulfanylpropanoyl-methyl-amino]propanoate

> <PUBCHEM_IUPAC_TRADITIONAL_NAME>
(2S)-2-[3-[[1-[(4-carbamoylcyclohexyl)methyl]-2,5-diketo-pyrrolidin-3-yl]thio]propanoyl-methyl-amino]propionic acid [(1S,2R,3S,5S,6S,20R,21S)-11-chloro-21-hydroxy-8,23-diketo-12,20-dimethoxy-2,5,9,16-tetramethyl-4,24-dioxa-9,22-diazatetracyclo[19.3.1.110,14.03,5]hexacosa-10,12,14(26),16,18-pentaen-6-yl] ester

> <PUBCHEM_IUPAC_INCHI>
InChI=1S/C47H64ClN5O13S/c1-25-10-9-11-35(63-8)47(61)23-33(64-45(60)50-47)26(2)41-46(4,66-41)36(22-38(55)52(6)31-19-29(18-25)20-32(62-7)40(31)48)65-44(59)27(3)51(5)37(54)16-17-67-34-21-39(56)53(43(34)58)24-28-12-14-30(15-13-28)42(49)57/h9-11,19-20,26-28,30,33-36,41,61H,12-18,21-24H2,1-8H3,(H2,49,57)(H,50,60)/t26-,27+,28?,30?,33+,34?,35-,36+,41+,46+,47+/m1/s1

> <PUBCHEM_IUPAC_INCHIKEY>
WPWQMVXPTHKASL-PUXYSECUSA-N

> <PUBCHEM_XLOGP3>
2

> <PUBCHEM_EXACT_MASS>
973.3909860

> <PUBCHEM_MOLECULAR_FORMULA>
C47H64ClN5O13S

> <PUBCHEM_MOLECULAR_WEIGHT>
974.6

> <PUBCHEM_OPENEYE_CAN_SMILES>
CC1C2CC(C(C=CC=C(CC3=CC(=C(C(=C3)OC)Cl)N(C(=O)CC(C4(C1O4)C)OC(=O)C(C)N(C)C(=O)CCSC5CC(=O)N(C5=O)CC6CCC(CC6)C(=O)N)C)C)OC)(NC(=O)O2)O

> <PUBCHEM_OPENEYE_ISO_SMILES>
C[C@@H]1[C@@H]2C[C@]([C@@H](C=CC=C(CC3=CC(=C(C(=C3)OC)Cl)N(C(=O)C[C@@H]([C@]4([C@H]1O4)C)OC(=O)[C@H](C)N(C)C(=O)CCSC5CC(=O)N(C5=O)CC6CCC(CC6)C(=O)N)C)C)OC)(NC(=O)O2)O

> <PUBCHEM_CACTVS_TPSA>
262

> <PUBCHEM_MONOISOTOPIC_WEIGHT>
973.3909860

> <PUBCHEM_TOTAL_CHARGE>
0

> <PUBCHEM_HEAVY_ATOM_COUNT>
67

> <PUBCHEM_ATOM_DEF_STEREO_COUNT>
8

> <PUBCHEM_ATOM_UDEF_STEREO_COUNT>
1

> <PUBCHEM_BOND_DEF_STEREO_COUNT>
0

> <PUBCHEM_BOND_UDEF_STEREO_COUNT>
2

> <PUBCHEM_ISOTOPIC_ATOM_COUNT>
0

> <PUBCHEM_COMPONENT_COUNT>
1

> <PUBCHEM_CACTVS_TAUTO_COUNT>
-1

> <PUBCHEM_COORDINATE_TYPE>
1
5
255

> <PUBCHEM_BONDANNOTATIONS>
35  18  6
56  2  3
21  26  6
22  68  5
23  27  5
25  71  5
36  44  1
38  49  8
38  51  8
24  4  5
49  55  8
51  63  8
53  62  1
55  64  8
30  6  5
63  64  8
31  7  5

$$$$
