154572876
  -OEChem-12122310272D

127126  0     1  0  0  0  0  0999 V2000
    2.0000    8.7500    0.0000 Ga -1  1  0  0  0  0  0  0  0  0  0  0
    2.0000    4.7500    0.0000 O   0  5  0  0  0  0  0  0  0  0  0  0
    8.0622   -4.7500    0.0000 O   0  0  0  0  0  0  0  0  0  0  0  0
   10.6603  -10.2500    0.0000 O   0  0  0  0  0  0  0  0  0  0  0  0
    8.0622   10.2500    0.0000 O   0  5  0  0  0  0  0  0  0  0  0  0
    7.1962    1.7500    0.0000 O   0  0  0  0  0  0  0  0  0  0  0  0
    9.7942   -8.7500    0.0000 O   0  0  0  0  0  0  0  0  0  0  0  0
    7.1962    5.7500    0.0000 O   0  5  0  0  0  0  0  0  0  0  0  0
    6.3301    7.2500    0.0000 O   0  0  0  0  0  0  0  0  0  0  0  0
    2.8660    9.2500    0.0000 O   0  5  0  0  0  0  0  0  0  0  0  0
    3.7320    7.7500    0.0000 O   0  0  0  0  0  0  0  0  0  0  0  0
   11.5263  -10.7500    0.0000 O   0  0  0  0  0  0  0  0  0  0  0  0
   14.1244  -13.2500    0.0000 O   0  0  0  0  0  0  0  0  0  0  0  0
   14.9904  -11.7500    0.0000 O   0  0  0  0  0  0  0  0  0  0  0  0
    3.7320   14.7500    0.0000 O   0  0  0  0  0  0  0  0  0  0  0  0
    2.8660   13.2500    0.0000 O   0  0  0  0  0  0  0  0  0  0  0  0
   11.5263  -14.7500    0.0000 O   0  0  0  0  0  0  0  0  0  0  0  0
   10.6603  -13.2500    0.0000 O   0  0  0  0  0  0  0  0  0  0  0  0
    4.5981    6.2500    0.0000 N   0  0  3  0  0  0  0  0  0  0  0  0
    5.4641    8.7500    0.0000 N   0  0  3  0  0  0  0  0  0  0  0  0
    9.7942   -4.7500    0.0000 N   0  0  0  0  0  0  0  0  0  0  0  0
   12.3923   -9.2500    0.0000 N   0  0  0  0  0  0  0  0  0  0  0  0
    6.3301    0.2500    0.0000 N   0  0  0  0  0  0  0  0  0  0  0  0
   13.2583  -10.7500    0.0000 N   0  0  0  0  0  0  0  0  0  0  0  0
    4.5981    7.2500    0.0000 C   0  0  0  0  0  0  0  0  0  0  0  0
    5.4641    7.7500    0.0000 C   0  0  0  0  0  0  0  0  0  0  0  0
    3.7320    5.7500    0.0000 C   0  0  0  0  0  0  0  0  0  0  0  0
    6.3301    9.2500    0.0000 C   0  0  0  0  0  0  0  0  0  0  0  0
   10.6603   -7.2500    0.0000 C   0  0  0  0  0  0  0  0  0  0  0  0
   11.5263   -7.7500    0.0000 C   0  0  0  0  0  0  0  0  0  0  0  0
   10.6603   -6.2500    0.0000 C   0  0  0  0  0  0  0  0  0  0  0  0
    3.7320    4.7500    0.0000 C   0  0  0  0  0  0  0  0  0  0  0  0
    5.4641    5.7500    0.0000 C   0  0  0  0  0  0  0  0  0  0  0  0
   11.5263   -8.7500    0.0000 C   0  0  1  0  0  0  0  0  0  0  0  0
    4.5981    9.2500    0.0000 C   0  0  0  0  0  0  0  0  0  0  0  0
    8.0622   -1.7500    0.0000 C   0  0  0  0  0  0  0  0  0  0  0  0
    9.7942   -5.7500    0.0000 C   0  0  0  0  0  0  0  0  0  0  0  0
    6.3301   10.2500    0.0000 C   0  0  0  0  0  0  0  0  0  0  0  0
    8.0622   -2.7500    0.0000 C   0  0  0  0  0  0  0  0  0  0  0  0
    7.1962   -1.2500    0.0000 C   0  0  0  0  0  0  0  0  0  0  0  0
    4.5981    3.2500    0.0000 C   0  0  0  0  0  0  0  0  0  0  0  0
    8.9282   -3.2500    0.0000 C   0  0  0  0  0  0  0  0  0  0  0  0
    4.5981    4.2500    0.0000 C   0  0  0  0  0  0  0  0  0  0  0  0
    5.4641    2.7500    0.0000 C   0  0  0  0  0  0  0  0  0  0  0  0
    7.1962   -0.2500    0.0000 C   0  0  0  0  0  0  0  0  0  0  0  0
    2.8660    4.2500    0.0000 C   0  0  0  0  0  0  0  0  0  0  0  0
    5.4641    1.7500    0.0000 C   0  0  0  0  0  0  0  0  0  0  0  0
    5.4641   10.7500    0.0000 C   0  0  0  0  0  0  0  0  0  0  0  0
    8.9282   -4.2500    0.0000 C   0  0  0  0  0  0  0  0  0  0  0  0
    5.4641   11.7500    0.0000 C   0  0  0  0  0  0  0  0  0  0  0  0
    3.7320    2.7500    0.0000 C   0  0  0  0  0  0  0  0  0  0  0  0
    7.1962   10.7500    0.0000 C   0  0  0  0  0  0  0  0  0  0  0  0
    2.8660    3.2500    0.0000 C   0  0  0  0  0  0  0  0  0  0  0  0
    6.3301    1.2500    0.0000 C   0  0  0  0  0  0  0  0  0  0  0  0
   10.6603   -9.2500    0.0000 C   0  0  0  0  0  0  0  0  0  0  0  0
    6.3301    6.2500    0.0000 C   0  0  0  0  0  0  0  0  0  0  0  0
    4.5981   12.2500    0.0000 C   0  0  0  0  0  0  0  0  0  0  0  0
    3.7320    8.7500    0.0000 C   0  0  0  0  0  0  0  0  0  0  0  0
    6.3301   12.2500    0.0000 C   0  0  0  0  0  0  0  0  0  0  0  0
    7.1962   11.7500    0.0000 C   0  0  0  0  0  0  0  0  0  0  0  0
   12.3923  -10.2500    0.0000 C   0  0  0  0  0  0  0  0  0  0  0  0
   13.2583  -11.7500    0.0000 C   0  0  1  0  0  0  0  0  0  0  0  0
   12.3923  -12.2500    0.0000 C   0  0  0  0  0  0  0  0  0  0  0  0
    4.5981   13.2500    0.0000 C   0  0  0  0  0  0  0  0  0  0  0  0
   12.3923  -13.2500    0.0000 C   0  0  0  0  0  0  0  0  0  0  0  0
   14.1244  -12.2500    0.0000 C   0  0  0  0  0  0  0  0  0  0  0  0
    3.7320   13.7500    0.0000 C   0  0  0  0  0  0  0  0  0  0  0  0
   11.5263  -13.7500    0.0000 C   0  0  0  0  0  0  0  0  0  0  0  0
    4.3860    7.8326    0.0000 H   0  0  0  0  0  0  0  0  0  0  0  0
    3.9875    7.1423    0.0000 H   0  0  0  0  0  0  0  0  0  0  0  0
    5.6762    7.1674    0.0000 H   0  0  0  0  0  0  0  0  0  0  0  0
    6.0747    7.8577    0.0000 H   0  0  0  0  0  0  0  0  0  0  0  0
    3.5200    6.3326    0.0000 H   0  0  0  0  0  0  0  0  0  0  0  0
    3.1215    5.6423    0.0000 H   0  0  0  0  0  0  0  0  0  0  0  0
    6.5422    8.6674    0.0000 H   0  0  0  0  0  0  0  0  0  0  0  0
    6.9407    9.3577    0.0000 H   0  0  0  0  0  0  0  0  0  0  0  0
   10.0497   -7.1423    0.0000 H   0  0  0  0  0  0  0  0  0  0  0  0
   10.4482   -7.8326    0.0000 H   0  0  0  0  0  0  0  0  0  0  0  0
   12.1369   -7.8577    0.0000 H   0  0  0  0  0  0  0  0  0  0  0  0
   11.7383   -7.1674    0.0000 H   0  0  0  0  0  0  0  0  0  0  0  0
   11.2708   -6.3577    0.0000 H   0  0  0  0  0  0  0  0  0  0  0  0
   10.8723   -5.6674    0.0000 H   0  0  0  0  0  0  0  0  0  0  0  0
   12.0632   -8.4400    0.0000 H   0  0  0  0  0  0  0  0  0  0  0  0
    5.0656    5.2750    0.0000 H   0  0  0  0  0  0  0  0  0  0  0  0
    5.8626    5.2750    0.0000 H   0  0  0  0  0  0  0  0  0  0  0  0
    4.9966    9.7250    0.0000 H   0  0  0  0  0  0  0  0  0  0  0  0
    4.1996    9.7250    0.0000 H   0  0  0  0  0  0  0  0  0  0  0  0
    8.6728   -1.8577    0.0000 H   0  0  0  0  0  0  0  0  0  0  0  0
    8.2742   -1.1674    0.0000 H   0  0  0  0  0  0  0  0  0  0  0  0
    9.1836   -5.6423    0.0000 H   0  0  0  0  0  0  0  0  0  0  0  0
    9.5822   -6.3326    0.0000 H   0  0  0  0  0  0  0  0  0  0  0  0
    7.4516   -2.6423    0.0000 H   0  0  0  0  0  0  0  0  0  0  0  0
    7.8501   -3.3326    0.0000 H   0  0  0  0  0  0  0  0  0  0  0  0
    6.5856   -1.1423    0.0000 H   0  0  0  0  0  0  0  0  0  0  0  0
    6.9841   -1.8326    0.0000 H   0  0  0  0  0  0  0  0  0  0  0  0
    9.5388   -3.3577    0.0000 H   0  0  0  0  0  0  0  0  0  0  0  0
    9.1403   -2.6674    0.0000 H   0  0  0  0  0  0  0  0  0  0  0  0
    5.1350    4.5600    0.0000 H   0  0  0  0  0  0  0  0  0  0  0  0
    6.0747    2.6423    0.0000 H   0  0  0  0  0  0  0  0  0  0  0  0
    5.6762    3.3326    0.0000 H   0  0  0  0  0  0  0  0  0  0  0  0
    7.8067   -0.3577    0.0000 H   0  0  0  0  0  0  0  0  0  0  0  0
    7.4082    0.3326    0.0000 H   0  0  0  0  0  0  0  0  0  0  0  0
    4.8535    1.8577    0.0000 H   0  0  0  0  0  0  0  0  0  0  0  0
    5.2520    1.1674    0.0000 H   0  0  0  0  0  0  0  0  0  0  0  0
   10.3312   -4.4400    0.0000 H   0  0  0  0  0  0  0  0  0  0  0  0
    4.9272   10.4400    0.0000 H   0  0  0  0  0  0  0  0  0  0  0  0
   12.9292   -8.9400    0.0000 H   0  0  0  0  0  0  0  0  0  0  0  0
    3.7320    2.1300    0.0000 H   0  0  0  0  0  0  0  0  0  0  0  0
    2.3291    2.9400    0.0000 H   0  0  0  0  0  0  0  0  0  0  0  0
    5.7932   -0.0600    0.0000 H   0  0  0  0  0  0  0  0  0  0  0  0
    3.9875   12.3577    0.0000 H   0  0  0  0  0  0  0  0  0  0  0  0
    4.3860   11.6674    0.0000 H   0  0  0  0  0  0  0  0  0  0  0  0
    6.3301   12.8700    0.0000 H   0  0  0  0  0  0  0  0  0  0  0  0
    7.7331   12.0600    0.0000 H   0  0  0  0  0  0  0  0  0  0  0  0
   13.7953  -11.4400    0.0000 H   0  0  0  0  0  0  0  0  0  0  0  0
   13.7953  -10.4400    0.0000 H   0  0  0  0  0  0  0  0  0  0  0  0
   12.1803  -11.6674    0.0000 H   0  0  0  0  0  0  0  0  0  0  0  0
   11.7817  -12.3577    0.0000 H   0  0  0  0  0  0  0  0  0  0  0  0
    5.2087   13.1423    0.0000 H   0  0  0  0  0  0  0  0  0  0  0  0
    4.8101   13.8326    0.0000 H   0  0  0  0  0  0  0  0  0  0  0  0
   12.6044  -13.8326    0.0000 H   0  0  0  0  0  0  0  0  0  0  0  0
   13.0029  -13.1423    0.0000 H   0  0  0  0  0  0  0  0  0  0  0  0
   10.1233  -10.5600    0.0000 H   0  0  0  0  0  0  0  0  0  0  0  0
   14.6613  -13.5600    0.0000 H   0  0  0  0  0  0  0  0  0  0  0  0
    3.1951   15.0600    0.0000 H   0  0  0  0  0  0  0  0  0  0  0  0
   10.9893  -15.0600    0.0000 H   0  0  0  0  0  0  0  0  0  0  0  0
    7.7331    6.0600    0.0000 H   0  3  0  0  0  0  0  0  0  0  0  0
  2 46  1  0  0  0  0
  3 49  2  0  0  0  0
  4 55  1  0  0  0  0
  4123  1  0  0  0  0
  5 52  1  0  0  0  0
  6 54  2  0  0  0  0
  7 55  2  0  0  0  0
  8 56  1  0  0  0  0
  9 56  2  0  0  0  0
 10 58  1  0  0  0  0
 11 58  2  0  0  0  0
 12 61  2  0  0  0  0
 13 66  1  0  0  0  0
 13124  1  0  0  0  0
 14 66  2  0  0  0  0
 15 67  1  0  0  0  0
 15125  1  0  0  0  0
 16 67  2  0  0  0  0
 17 68  1  0  0  0  0
 17126  1  0  0  0  0
 18 68  2  0  0  0  0
 19 25  1  0  0  0  0
 19 27  1  0  0  0  0
 19 33  1  0  0  0  0
 20 26  1  0  0  0  0
 20 28  1  0  0  0  0
 20 35  1  0  0  0  0
 21 37  1  0  0  0  0
 21 49  1  0  0  0  0
 21105  1  0  0  0  0
 34 22  1  6  0  0  0
 22 61  1  0  0  0  0
 22107  1  0  0  0  0
 23 45  1  0  0  0  0
 23 54  1  0  0  0  0
 23110  1  0  0  0  0
 24 61  1  0  0  0  0
 62 24  1  6  0  0  0
 24116  1  0  0  0  0
 25 26  1  0  0  0  0
 25 69  1  0  0  0  0
 25 70  1  0  0  0  0
 26 71  1  0  0  0  0
 26 72  1  0  0  0  0
 27 32  1  0  0  0  0
 27 73  1  0  0  0  0
 27 74  1  0  0  0  0
 28 38  1  0  0  0  0
 28 75  1  0  0  0  0
 28 76  1  0  0  0  0
 29 30  1  0  0  0  0
 29 31  1  0  0  0  0
 29 77  1  0  0  0  0
 29 78  1  0  0  0  0
 30 34  1  0  0  0  0
 30 79  1  0  0  0  0
 30 80  1  0  0  0  0
 31 37  1  0  0  0  0
 31 81  1  0  0  0  0
 31 82  1  0  0  0  0
 32 43  1  0  0  0  0
 32 46  2  0  0  0  0
 33 56  1  0  0  0  0
 33 84  1  0  0  0  0
 33 85  1  0  0  0  0
 34 55  1  0  0  0  0
 34 83  1  0  0  0  0
 35 58  1  0  0  0  0
 35 86  1  0  0  0  0
 35 87  1  0  0  0  0
 36 39  1  0  0  0  0
 36 40  1  0  0  0  0
 36 88  1  0  0  0  0
 36 89  1  0  0  0  0
 37 90  1  0  0  0  0
 37 91  1  0  0  0  0
 38 48  1  0  0  0  0
 38 52  2  0  0  0  0
 39 42  1  0  0  0  0
 39 92  1  0  0  0  0
 39 93  1  0  0  0  0
 40 45  1  0  0  0  0
 40 94  1  0  0  0  0
 40 95  1  0  0  0  0
 41 43  2  0  0  0  0
 41 44  1  0  0  0  0
 41 51  1  0  0  0  0
 42 49  1  0  0  0  0
 42 96  1  0  0  0  0
 42 97  1  0  0  0  0
 43 98  1  0  0  0  0
 44 47  1  0  0  0  0
 44 99  1  0  0  0  0
 44100  1  0  0  0  0
 45101  1  0  0  0  0
 45102  1  0  0  0  0
 46 53  1  0  0  0  0
 47 54  1  0  0  0  0
 47103  1  0  0  0  0
 47104  1  0  0  0  0
 48 50  2  0  0  0  0
 48106  1  0  0  0  0
 50 57  1  0  0  0  0
 50 59  1  0  0  0  0
 51 53  2  0  0  0  0
 51108  1  0  0  0  0
 52 60  1  0  0  0  0
 53109  1  0  0  0  0
 57 64  1  0  0  0  0
 57111  1  0  0  0  0
 57112  1  0  0  0  0
 59 60  2  0  0  0  0
 59113  1  0  0  0  0
 60114  1  0  0  0  0
 62 63  1  0  0  0  0
 62 66  1  0  0  0  0
 62115  1  0  0  0  0
 63 65  1  0  0  0  0
 63117  1  0  0  0  0
 63118  1  0  0  0  0
 64 67  1  0  0  0  0
 64119  1  0  0  0  0
 64120  1  0  0  0  0
 65 68  1  0  0  0  0
 65121  1  0  0  0  0
 65122  1  0  0  0  0
M  CHG  6   1   3   2  -1   5  -1   8  -1  10  -1 127   1
M  ISO  1   1  68
M  END
> <PUBCHEM_COMPOUND_CID>
154572876

> <PUBCHEM_COMPOUND_CANONICALIZED>
1

> <PUBCHEM_CACTVS_COMPLEXITY>
1610

> <PUBCHEM_CACTVS_HBOND_ACCEPTOR>
19

> <PUBCHEM_CACTVS_HBOND_DONOR>
9

> <PUBCHEM_CACTVS_ROTATABLE_BOND>
33

> <PUBCHEM_CACTVS_SUBSKEYS>
AAADcfB/vgAAAAABAAAAAAAAAAAAAAAAAAAwYAAAAAAAAAABQAAAHgAQCAAADCzBmAQxDoPAAgCIAiHSGACCAAAgIAAIiIGODIiKZjKAkTOUcAhu1hOYiAe87uCOIAACAAAIAABAAAQAABAAAAAAAAAAAA==

> <PUBCHEM_IUPAC_OPENEYE_NAME>
2-[[5-[3-[[6-[[(5S)-5-carboxy-5-[[(1S)-1,3-dicarboxypropyl]carbamoylamino]pentyl]amino]-6-oxo-hexyl]amino]-3-oxo-propyl]-2-oxido-phenyl]methyl-[2-[[5-(2-carboxyethyl)-2-oxido-phenyl]methyl-(carboxylatomethyl)amino]ethyl]amino]acetate;gallium-68(3+);hydron

> <PUBCHEM_IUPAC_CAS_NAME>
2-[[5-[3-[[6-[[(5S)-5-carboxy-5-[[[[(1S)-1,3-dicarboxypropyl]amino]-oxomethyl]amino]pentyl]amino]-6-oxohexyl]amino]-3-oxopropyl]-2-oxidophenyl]methyl-[2-[[5-(2-carboxyethyl)-2-oxidophenyl]methyl-(carboxylatomethyl)amino]ethyl]amino]acetate;gallium-68(3+);hydron

> <PUBCHEM_IUPAC_NAME_MARKUP>
2-[[5-[3-[[6-[[(5<I>S</I>)-5-carboxy-5-[[(1<I>S</I>)-1,3-dicarboxypropyl]carbamoylamino]pentyl]amino]-6-oxohexyl]amino]-3-oxopropyl]-2-oxidophenyl]methyl-[2-[[5-(2-carboxyethyl)-2-oxidophenyl]methyl-(carboxylatomethyl)amino]ethyl]amino]acetate;gallium-68(3+);hydron

> <PUBCHEM_IUPAC_NAME>
2-[[5-[3-[[6-[[(5S)-5-carboxy-5-[[(1S)-1,3-dicarboxypropyl]carbamoylamino]pentyl]amino]-6-oxohexyl]amino]-3-oxopropyl]-2-oxidophenyl]methyl-[2-[[5-(2-carboxyethyl)-2-oxidophenyl]methyl-(carboxylatomethyl)amino]ethyl]amino]acetate;gallium-68(3+);hydron

> <PUBCHEM_IUPAC_SYSTEMATIC_NAME>
2-[[5-[3-[[6-[[(5S)-5-[[(2S)-1,5-bis(oxidanyl)-1,5-bis(oxidanylidene)pentan-2-yl]carbamoylamino]-6-oxidanyl-6-oxidanylidene-hexyl]amino]-6-oxidanylidene-hexyl]amino]-3-oxidanylidene-propyl]-2-oxidanidyl-phenyl]methyl-[2-[[5-(3-hydroxy-3-oxopropyl)-2-oxidanidyl-phenyl]methyl-(2-oxidanidyl-2-oxidanylidene-ethyl)amino]ethyl]amino]ethanoate;gallium-68(3+);hydron

> <PUBCHEM_IUPAC_TRADITIONAL_NAME>
2-[[5-[3-[[6-[[(5S)-5-carboxy-5-[[(1S)-1,3-dicarboxypropyl]carbamoylamino]pentyl]amino]-6-keto-hexyl]amino]-3-keto-propyl]-2-oxido-benzyl]-[2-[[5-(2-carboxyethyl)-2-oxido-benzyl]-(carboxylatomethyl)amino]ethyl]amino]acetate;gallium-68(3+);hydron

> <PUBCHEM_IUPAC_INCHI>
InChI=1S/C44H62N6O17.Ga/c51-34-13-8-28(22-30(34)24-49(26-40(59)60)20-21-50(27-41(61)62)25-31-23-29(9-14-35(31)52)11-16-38(55)56)10-15-37(54)46-18-4-1-2-7-36(53)45-19-5-3-6-32(42(63)64)47-44(67)48-33(43(65)66)12-17-39(57)58;/h8-9,13-14,22-23,32-33,51-52H,1-7,10-12,15-21,24-27H2,(H,45,53)(H,46,54)(H,55,56)(H,57,58)(H,59,60)(H,61,62)(H,63,64)(H,65,66)(H2,47,48,67);/q;+3/p-3/t32-,33-;/m0./s1/i;1-2

> <PUBCHEM_IUPAC_INCHIKEY>
AEBYHKKMCWUMKX-LNTZDJBBSA-K

> <PUBCHEM_EXACT_MASS>
1011.32165

> <PUBCHEM_MOLECULAR_FORMULA>
C44H59GaN6O17

> <PUBCHEM_MOLECULAR_WEIGHT>
1011.9

> <PUBCHEM_OPENEYE_CAN_SMILES>
[H+].C1=CC(=C(C=C1CCC(=O)NCCCCCC(=O)NCCCCC(C(=O)O)NC(=O)NC(CCC(=O)O)C(=O)O)CN(CCN(CC2=C(C=CC(=C2)CCC(=O)O)[O-])CC(=O)[O-])CC(=O)[O-])[O-].[Ga+3]

> <PUBCHEM_OPENEYE_ISO_SMILES>
[H+].C1=CC(=C(C=C1CCC(=O)NCCCCCC(=O)NCCCC[C@@H](C(=O)O)NC(=O)N[C@@H](CCC(=O)O)C(=O)O)CN(CCN(CC2=C(C=CC(=C2)CCC(=O)O)[O-])CC(=O)[O-])CC(=O)[O-])[O-].[68Ga+3]

> <PUBCHEM_CACTVS_TPSA>
381

> <PUBCHEM_MONOISOTOPIC_WEIGHT>
1011.32165

> <PUBCHEM_TOTAL_CHARGE>
0

> <PUBCHEM_HEAVY_ATOM_COUNT>
68

> <PUBCHEM_ATOM_DEF_STEREO_COUNT>
2

> <PUBCHEM_ATOM_UDEF_STEREO_COUNT>
0

> <PUBCHEM_BOND_DEF_STEREO_COUNT>
0

> <PUBCHEM_BOND_UDEF_STEREO_COUNT>
0

> <PUBCHEM_ISOTOPIC_ATOM_COUNT>
1

> <PUBCHEM_COMPONENT_COUNT>
3

> <PUBCHEM_CACTVS_TAUTO_COUNT>
-1

> <PUBCHEM_COORDINATE_TYPE>
1
5
255

> <PUBCHEM_BONDANNOTATIONS>
34  22  6
62  24  6
32  43  8
32  46  8
38  48  8
38  52  8
41  43  8
41  51  8
46  53  8
48  50  8
50  59  8
51  53  8
52  60  8
59  60  8

$$$$
