168322462
  -OEChem-12122309302D

205212  0     1  0  0  0  0  0999 V2000
    8.0622  -11.6398    0.0000 I   0  0  0  0  0  0  0  0  0  0  0  0
   10.6603   -9.1398    0.0000 S   0  0  0  0  0  0  0  0  0  0  0  0
   17.7001   -1.1737    0.0000 S   0  0  0  0  0  0  0  0  0  0  0  0
   18.1869   -0.3002    0.0000 S   0  0  0  0  0  0  0  0  0  0  0  0
   17.5885   -9.1398    0.0000 O   0  0  0  0  0  0  0  0  0  0  0  0
   18.4545   -7.6398    0.0000 O   0  0  0  0  0  0  0  0  0  0  0  0
   20.1865  -10.6398    0.0000 O   0  0  0  0  0  0  0  0  0  0  0  0
   16.7224   -5.6398    0.0000 O   0  0  0  0  0  0  0  0  0  0  0  0
   18.4545   -5.6398    0.0000 O   0  0  0  0  0  0  0  0  0  0  0  0
   16.7224   -8.6398    0.0000 O   0  0  0  0  0  0  0  0  0  0  0  0
   14.1244   -7.1398    0.0000 O   0  0  0  0  0  0  0  0  0  0  0  0
   13.2583   -8.6398    0.0000 O   0  0  0  0  0  0  0  0  0  0  0  0
   17.4545  -12.3718    0.0000 O   0  0  0  0  0  0  0  0  0  0  0  0
   10.6603   -7.1398    0.0000 O   0  0  0  0  0  0  0  0  0  0  0  0
   20.6855   -2.0510    0.0000 O   0  0  0  0  0  0  0  0  0  0  0  0
   22.0073   -4.3429    0.0000 O   0  0  0  0  0  0  0  0  0  0  0  0
    5.4641   -9.1398    0.0000 O   0  0  0  0  0  0  0  0  0  0  0  0
    6.3301  -10.6398    0.0000 O   0  0  0  0  0  0  0  0  0  0  0  0
    9.7942   -7.6398    0.0000 O   0  0  0  0  0  0  0  0  0  0  0  0
    2.8660  -10.6398    0.0000 O   0  0  0  0  0  0  0  0  0  0  0  0
    2.8660   -8.6398    0.0000 O   0  0  0  0  0  0  0  0  0  0  0  0
    4.5981  -11.6398    0.0000 O   0  0  0  0  0  0  0  0  0  0  0  0
   21.6282   -6.9614    0.0000 O   0  0  0  0  0  0  0  0  0  0  0  0
   22.1958   -5.3250    0.0000 O   0  0  0  0  0  0  0  0  0  0  0  0
    8.0622   -7.6398    0.0000 O   0  0  0  0  0  0  0  0  0  0  0  0
    6.3301   -8.6398    0.0000 O   0  0  0  0  0  0  0  0  0  0  0  0
   18.6475    2.3052    0.0000 O   0  0  0  0  0  0  0  0  0  0  0  0
   19.0556    8.3742    0.0000 O   0  0  0  0  0  0  0  0  0  0  0  0
   20.0031   11.8531    0.0000 O   0  0  0  0  0  0  0  0  0  0  0  0
   18.9545  -11.5058    0.0000 N   0  0  0  0  0  0  0  0  0  0  0  0
   14.9904   -7.6398    0.0000 N   0  0  0  0  0  0  0  0  0  0  0  0
   20.4949   -5.6516    0.0000 N   0  0  0  0  0  0  0  0  0  0  0  0
   17.1345    3.1484    0.0000 N   0  0  0  0  0  0  0  0  0  0  0  0
   17.6214    4.0219    0.0000 N   0  0  0  0  0  0  0  0  0  0  0  0
   18.4901   12.6963    0.0000 N   0  0  0  0  0  0  0  0  0  0  0  0
   18.4545  -10.6398    0.0000 C   0  0  1  0  0  0  0  0  0  0  0  0
   19.3205  -10.1398    0.0000 C   0  0  2  0  0  0  0  0  0  0  0  0
   19.3205   -9.1398    0.0000 C   0  0  0  0  0  0  0  0  0  0  0  0
   18.4545   -8.6398    0.0000 C   0  0  1  0  0  0  0  0  0  0  0  0
   17.5885  -10.1398    0.0000 C   0  0  0  0  0  0  0  0  0  0  0  0
   17.5885   -7.1398    0.0000 C   0  0  2  0  0  0  0  0  0  0  0  0
   16.7224   -7.6398    0.0000 C   0  0  1  0  0  0  0  0  0  0  0  0
   15.8564   -7.1398    0.0000 C   0  0  1  0  0  0  0  0  0  0  0  0
   17.9545  -11.5058    0.0000 C   0  0  0  0  0  0  0  0  0  0  0  0
   17.5885   -6.1398    0.0000 C   0  0  1  0  0  0  0  0  0  0  0  0
   15.8564   -6.1398    0.0000 C   0  0  1  0  0  0  0  0  0  0  0  0
   19.9545  -11.5058    0.0000 C   0  0  0  0  0  0  0  0  0  0  0  0
   18.4545  -12.3718    0.0000 C   0  0  0  0  0  0  0  0  0  0  0  0
   14.9904   -5.6398    0.0000 C   0  0  0  0  0  0  0  0  0  0  0  0
   20.4545  -12.3718    0.0000 C   0  0  0  0  0  0  0  0  0  0  0  0
   21.0526  -10.1398    0.0000 C   0  0  0  0  0  0  0  0  0  0  0  0
   18.4545   -4.6398    0.0000 C   0  0  2  0  0  0  0  0  0  0  0  0
   13.2583   -7.6398    0.0000 C   0  0  2  0  0  0  0  0  0  0  0  0
   18.9545  -13.2378    0.0000 C   0  0  0  0  0  0  0  0  0  0  0  0
   12.3923   -7.1398    0.0000 C   0  0  0  0  0  0  0  0  0  0  0  0
   11.5263   -7.6398    0.0000 C   0  0  1  0  0  0  0  0  0  0  0  0
   11.5263   -8.6398    0.0000 C   0  0  1  0  0  0  0  0  0  0  0  0
   12.3923   -9.1398    0.0000 C   0  0  1  0  0  0  0  0  0  0  0  0
   19.3616   -4.3417    0.0000 C   0  0  0  0  0  0  0  0  0  0  0  0
   19.1730   -3.3597    0.0000 C   0  0  0  0  0  0  0  0  0  0  0  0
   19.9292   -2.7054    0.0000 C   0  0  2  0  0  0  0  0  0  0  0  0
   20.3063   -4.6695    0.0000 C   0  0  0  0  0  0  0  0  0  0  0  0
   12.3923  -10.1398    0.0000 C   0  0  0  0  0  0  0  0  0  0  0  0
   17.5474   -4.3417    0.0000 C   0  0  0  0  0  0  0  0  0  0  0  0
   20.8740   -3.0331    0.0000 C   0  0  0  0  0  0  0  0  0  0  0  0
   21.0625   -4.0152    0.0000 C   0  0  0  0  0  0  0  0  0  0  0  0
   18.2282   -3.0319    0.0000 C   0  0  0  0  0  0  0  0  0  0  0  0
    9.7942   -8.6398    0.0000 C   0  0  0  0  0  0  0  0  0  0  0  0
   19.4016   -1.9096    0.0000 C   0  0  0  0  0  0  0  0  0  0  0  0
   16.9939   -3.5638    0.0000 C   0  0  0  0  0  0  0  0  0  0  0  0
   18.2131   -2.0320    0.0000 C   0  0  0  0  0  0  0  0  0  0  0  0
    3.7320  -10.1398    0.0000 C   0  0  2  0  0  0  0  0  0  0  0  0
    3.7320   -9.1398    0.0000 C   0  0  2  0  0  0  0  0  0  0  0  0
    4.5981  -10.6398    0.0000 C   0  0  2  0  0  0  0  0  0  0  0  0
    8.9282   -9.1398    0.0000 C   0  0  0  0  0  0  0  0  0  0  0  0
    4.5981   -8.6398    0.0000 C   0  0  2  0  0  0  0  0  0  0  0  0
    5.4641  -10.1398    0.0000 C   0  0  3  0  0  0  0  0  0  0  0  0
   21.4396   -5.9793    0.0000 C   0  0  0  0  0  0  0  0  0  0  0  0
   17.0096   -2.6092    0.0000 C   0  0  0  0  0  0  0  0  0  0  0  0
   18.5049   -1.5819    0.0000 C   0  0  0  0  0  0  0  0  0  0  0  0
    8.9282  -10.1398    0.0000 C   0  0  0  0  0  0  0  0  0  0  0  0
    8.0622   -8.6398    0.0000 C   0  0  0  0  0  0  0  0  0  0  0  0
   17.5885   -1.8499    0.0000 C   0  0  0  0  0  0  0  0  0  0  0  0
    4.5981   -7.6398    0.0000 C   0  0  0  0  0  0  0  0  0  0  0  0
    7.1962  -10.1398    0.0000 C   0  0  0  0  0  0  0  0  0  0  0  0
    8.0622  -10.6398    0.0000 C   0  0  0  0  0  0  0  0  0  0  0  0
    7.1962   -9.1398    0.0000 C   0  0  0  0  0  0  0  0  0  0  0  0
    9.7942  -10.6398    0.0000 C   0  0  0  0  0  0  0  0  0  0  0  0
    2.0000  -10.1398    0.0000 C   0  0  0  0  0  0  0  0  0  0  0  0
   17.6738    0.5582    0.0000 C   0  0  0  0  0  0  0  0  0  0  0  0
   22.5729   -7.2891    0.0000 C   0  0  0  0  0  0  0  0  0  0  0  0
   17.1608    1.4165    0.0000 C   0  0  0  0  0  0  0  0  0  0  0  0
    7.1962   -7.1398    0.0000 C   0  0  0  0  0  0  0  0  0  0  0  0
   18.5322    1.0712    0.0000 C   0  0  0  0  0  0  0  0  0  0  0  0
   16.8155    0.0451    0.0000 C   0  0  0  0  0  0  0  0  0  0  0  0
   17.6476    2.2900    0.0000 C   0  0  0  0  0  0  0  0  0  0  0  0
   17.1083    4.8802    0.0000 C   0  0  0  0  0  0  0  0  0  0  0  0
   17.5951    5.7537    0.0000 C   0  0  0  0  0  0  0  0  0  0  0  0
   16.1084    4.8651    0.0000 C   0  0  0  0  0  0  0  0  0  0  0  0
   17.0821    6.6121    0.0000 C   0  0  0  0  0  0  0  0  0  0  0  0
   18.5950    5.7689    0.0000 C   0  0  0  0  0  0  0  0  0  0  0  0
   17.5689    7.4856    0.0000 C   0  0  0  0  0  0  0  0  0  0  0  0
   19.0819    6.6424    0.0000 C   0  0  0  0  0  0  0  0  0  0  0  0
   18.5688    7.5007    0.0000 C   0  0  0  0  0  0  0  0  0  0  0  0
   18.5426    9.2326    0.0000 C   0  0  0  0  0  0  0  0  0  0  0  0
   19.0294   10.1061    0.0000 C   0  0  0  0  0  0  0  0  0  0  0  0
   18.5164   10.9644    0.0000 C   0  0  0  0  0  0  0  0  0  0  0  0
   19.0032   11.8379    0.0000 C   0  0  0  0  0  0  0  0  0  0  0  0
   19.8574   -9.8298    0.0000 H   0  0  0  0  0  0  0  0  0  0  0  0
   19.9311   -9.2474    0.0000 H   0  0  0  0  0  0  0  0  0  0  0  0
   19.5326   -8.5572    0.0000 H   0  0  0  0  0  0  0  0  0  0  0  0
   18.9914   -8.3298    0.0000 H   0  0  0  0  0  0  0  0  0  0  0  0
   16.9779  -10.0321    0.0000 H   0  0  0  0  0  0  0  0  0  0  0  0
   17.3764  -10.7224    0.0000 H   0  0  0  0  0  0  0  0  0  0  0  0
   17.5885   -7.7598    0.0000 H   0  0  0  0  0  0  0  0  0  0  0  0
   16.1855   -7.9498    0.0000 H   0  0  0  0  0  0  0  0  0  0  0  0
   15.3195   -6.8298    0.0000 H   0  0  0  0  0  0  0  0  0  0  0  0
   17.4175  -11.1958    0.0000 H   0  0  0  0  0  0  0  0  0  0  0  0
   17.6445  -12.0427    0.0000 H   0  0  0  0  0  0  0  0  0  0  0  0
   18.4914  -11.8158    0.0000 H   0  0  0  0  0  0  0  0  0  0  0  0
   17.5885   -5.5198    0.0000 H   0  0  0  0  0  0  0  0  0  0  0  0
   15.8564   -5.5198    0.0000 H   0  0  0  0  0  0  0  0  0  0  0  0
   20.5371  -11.2937    0.0000 H   0  0  0  0  0  0  0  0  0  0  0  0
   19.8468  -10.8952    0.0000 H   0  0  0  0  0  0  0  0  0  0  0  0
   14.9904   -8.2598    0.0000 H   0  0  0  0  0  0  0  0  0  0  0  0
   15.3004   -5.1028    0.0000 H   0  0  0  0  0  0  0  0  0  0  0  0
   14.4534   -5.3298    0.0000 H   0  0  0  0  0  0  0  0  0  0  0  0
   14.6804   -6.1767    0.0000 H   0  0  0  0  0  0  0  0  0  0  0  0
   16.1855   -8.9498    0.0000 H   0  0  0  0  0  0  0  0  0  0  0  0
   19.9175  -12.6818    0.0000 H   0  0  0  0  0  0  0  0  0  0  0  0
   20.7645  -12.9088    0.0000 H   0  0  0  0  0  0  0  0  0  0  0  0
   20.9914  -12.0618    0.0000 H   0  0  0  0  0  0  0  0  0  0  0  0
   21.3626  -10.6767    0.0000 H   0  0  0  0  0  0  0  0  0  0  0  0
   21.5895   -9.8298    0.0000 H   0  0  0  0  0  0  0  0  0  0  0  0
   20.7426   -9.6028    0.0000 H   0  0  0  0  0  0  0  0  0  0  0  0
   18.9567   -5.0034    0.0000 H   0  0  0  0  0  0  0  0  0  0  0  0
   13.2583   -7.0198    0.0000 H   0  0  0  0  0  0  0  0  0  0  0  0
   18.4175  -13.5478    0.0000 H   0  0  0  0  0  0  0  0  0  0  0  0
   19.2645  -13.7748    0.0000 H   0  0  0  0  0  0  0  0  0  0  0  0
   19.4914  -12.9278    0.0000 H   0  0  0  0  0  0  0  0  0  0  0  0
   12.7908   -6.6648    0.0000 H   0  0  0  0  0  0  0  0  0  0  0  0
   11.9938   -6.6648    0.0000 H   0  0  0  0  0  0  0  0  0  0  0  0
   11.5263   -7.0198    0.0000 H   0  0  0  0  0  0  0  0  0  0  0  0
   10.9893   -8.3298    0.0000 H   0  0  0  0  0  0  0  0  0  0  0  0
   12.9292   -9.4498    0.0000 H   0  0  0  0  0  0  0  0  0  0  0  0
   11.7723  -10.1398    0.0000 H   0  0  0  0  0  0  0  0  0  0  0  0
   12.3923  -10.7598    0.0000 H   0  0  0  0  0  0  0  0  0  0  0  0
   13.0123  -10.1398    0.0000 H   0  0  0  0  0  0  0  0  0  0  0  0
   21.4939   -3.0237    0.0000 H   0  0  0  0  0  0  0  0  0  0  0  0
   20.9724   -2.4210    0.0000 H   0  0  0  0  0  0  0  0  0  0  0  0
   10.6603   -6.5198    0.0000 H   0  0  0  0  0  0  0  0  0  0  0  0
   17.7258   -3.3952    0.0000 H   0  0  0  0  0  0  0  0  0  0  0  0
   20.0260   -6.0572    0.0000 H   0  0  0  0  0  0  0  0  0  0  0  0
   20.5686   -1.4422    0.0000 H   0  0  0  0  0  0  0  0  0  0  0  0
   18.7989   -2.2352    0.0000 H   0  0  0  0  0  0  0  0  0  0  0  0
   17.6167   -2.2016    0.0000 H   0  0  0  0  0  0  0  0  0  0  0  0
    3.1951   -9.8298    0.0000 H   0  0  0  0  0  0  0  0  0  0  0  0
    3.7320   -8.5198    0.0000 H   0  0  0  0  0  0  0  0  0  0  0  0
    4.0611  -10.9498    0.0000 H   0  0  0  0  0  0  0  0  0  0  0  0
    5.1350   -8.3298    0.0000 H   0  0  0  0  0  0  0  0  0  0  0  0
    5.4641  -10.7598    0.0000 H   0  0  0  0  0  0  0  0  0  0  0  0
   16.4238   -2.4059    0.0000 H   0  0  0  0  0  0  0  0  0  0  0  0
   17.2374   -1.3389    0.0000 H   0  0  0  0  0  0  0  0  0  0  0  0
    5.2181   -7.6398    0.0000 H   0  0  0  0  0  0  0  0  0  0  0  0
    4.5981   -7.0198    0.0000 H   0  0  0  0  0  0  0  0  0  0  0  0
    3.9781   -7.6398    0.0000 H   0  0  0  0  0  0  0  0  0  0  0  0
    2.8660   -8.0198    0.0000 H   0  0  0  0  0  0  0  0  0  0  0  0
    4.0611  -11.9498    0.0000 H   0  0  0  0  0  0  0  0  0  0  0  0
    9.4842  -11.1767    0.0000 H   0  0  0  0  0  0  0  0  0  0  0  0
   10.3312  -10.9498    0.0000 H   0  0  0  0  0  0  0  0  0  0  0  0
   10.1042  -10.1028    0.0000 H   0  0  0  0  0  0  0  0  0  0  0  0
    2.3100   -9.6028    0.0000 H   0  0  0  0  0  0  0  0  0  0  0  0
    1.4631   -9.8298    0.0000 H   0  0  0  0  0  0  0  0  0  0  0  0
    1.6900  -10.6767    0.0000 H   0  0  0  0  0  0  0  0  0  0  0  0
   22.3697   -7.8749    0.0000 H   0  0  0  0  0  0  0  0  0  0  0  0
   23.1587   -7.4923    0.0000 H   0  0  0  0  0  0  0  0  0  0  0  0
   22.7761   -6.7034    0.0000 H   0  0  0  0  0  0  0  0  0  0  0  0
    6.3301   -8.0198    0.0000 H   0  0  0  0  0  0  0  0  0  0  0  0
   16.6798    1.8078    0.0000 H   0  0  0  0  0  0  0  0  0  0  0  0
   16.6919    1.0108    0.0000 H   0  0  0  0  0  0  0  0  0  0  0  0
    7.5062   -6.6028    0.0000 H   0  0  0  0  0  0  0  0  0  0  0  0
    6.6592   -6.8298    0.0000 H   0  0  0  0  0  0  0  0  0  0  0  0
    6.8862   -7.6767    0.0000 H   0  0  0  0  0  0  0  0  0  0  0  0
   18.8503    0.5390    0.0000 H   0  0  0  0  0  0  0  0  0  0  0  0
   19.0644    1.3893    0.0000 H   0  0  0  0  0  0  0  0  0  0  0  0
   18.2141    1.6034    0.0000 H   0  0  0  0  0  0  0  0  0  0  0  0
   16.4974    0.5773    0.0000 H   0  0  0  0  0  0  0  0  0  0  0  0
   16.2833   -0.2730    0.0000 H   0  0  0  0  0  0  0  0  0  0  0  0
   17.1336   -0.4871    0.0000 H   0  0  0  0  0  0  0  0  0  0  0  0
   16.5146    3.1390    0.0000 H   0  0  0  0  0  0  0  0  0  0  0  0
   16.0990    5.4850    0.0000 H   0  0  0  0  0  0  0  0  0  0  0  0
   15.4885    4.8557    0.0000 H   0  0  0  0  0  0  0  0  0  0  0  0
   16.1178    4.2452    0.0000 H   0  0  0  0  0  0  0  0  0  0  0  0
   16.4622    6.6027    0.0000 H   0  0  0  0  0  0  0  0  0  0  0  0
   18.9131    5.2367    0.0000 H   0  0  0  0  0  0  0  0  0  0  0  0
   17.2508    8.0178    0.0000 H   0  0  0  0  0  0  0  0  0  0  0  0
   19.7018    6.6518    0.0000 H   0  0  0  0  0  0  0  0  0  0  0  0
   18.0617    9.6239    0.0000 H   0  0  0  0  0  0  0  0  0  0  0  0
   18.0737    8.8269    0.0000 H   0  0  0  0  0  0  0  0  0  0  0  0
   19.5103    9.7148    0.0000 H   0  0  0  0  0  0  0  0  0  0  0  0
   19.4983   10.5117    0.0000 H   0  0  0  0  0  0  0  0  0  0  0  0
   18.0354   11.3557    0.0000 H   0  0  0  0  0  0  0  0  0  0  0  0
   18.0475   10.5588    0.0000 H   0  0  0  0  0  0  0  0  0  0  0  0
   18.7920   13.2378    0.0000 H   0  0  0  0  0  0  0  0  0  0  0  0
   17.8702   12.6869    0.0000 H   0  0  0  0  0  0  0  0  0  0  0  0
  1 86  1  0  0  0  0
 57  2  1  1  0  0  0
  2 68  1  0  0  0  0
  3  4  1  0  0  0  0
  3 71  1  0  0  0  0
  4 90  1  0  0  0  0
  5 39  1  0  0  0  0
  5 40  1  0  0  0  0
 39  6  1  1  0  0  0
 41  6  1  6  0  0  0
 37  7  1  6  0  0  0
  7 51  1  0  0  0  0
  8 45  1  0  0  0  0
  8 46  1  0  0  0  0
 45  9  1  1  0  0  0
 52  9  1  1  0  0  0
 42 10  1  6  0  0  0
 10129  1  0  0  0  0
 11 31  1  0  0  0  0
 53 11  1  6  0  0  0
 12 53  1  0  0  0  0
 12 58  1  0  0  0  0
 13 48  2  0  0  0  0
 56 14  1  1  0  0  0
 14151  1  0  0  0  0
 61 15  1  1  0  0  0
 15154  1  0  0  0  0
 16 66  2  0  0  0  0
 17 76  1  0  0  0  0
 17 77  1  0  0  0  0
 18 77  1  0  0  0  0
 18 85  1  0  0  0  0
 19 68  2  0  0  0  0
 72 20  1  6  0  0  0
 20 89  1  0  0  0  0
 73 21  1  1  0  0  0
 21167  1  0  0  0  0
 74 22  1  6  0  0  0
 22168  1  0  0  0  0
 23 78  1  0  0  0  0
 23 91  1  0  0  0  0
 24 78  2  0  0  0  0
 25 82  1  0  0  0  0
 25 93  1  0  0  0  0
 26 87  1  0  0  0  0
 26178  1  0  0  0  0
 27 96  2  0  0  0  0
 28104  1  0  0  0  0
 28105  1  0  0  0  0
 29108  2  0  0  0  0
 36 30  1  6  0  0  0
 30 47  1  0  0  0  0
 30 48  1  0  0  0  0
 43 31  1  6  0  0  0
 31125  1  0  0  0  0
 32 62  1  0  0  0  0
 32 78  1  0  0  0  0
 32153  1  0  0  0  0
 33 34  1  0  0  0  0
 33 96  1  0  0  0  0
 33190  1  0  0  0  0
 34 97  2  3  0  0  0
 35108  1  0  0  0  0
 35204  1  0  0  0  0
 35205  1  0  0  0  0
 36 37  1  0  0  0  0
 36 40  1  0  0  0  0
 36 44  1  0  0  0  0
 37 38  1  0  0  0  0
 37109  1  0  0  0  0
 38 39  1  0  0  0  0
 38110  1  0  0  0  0
 38111  1  0  0  0  0
 39112  1  0  0  0  0
 40113  1  0  0  0  0
 40114  1  0  0  0  0
 41 42  1  0  0  0  0
 41 45  1  0  0  0  0
 41115  1  0  0  0  0
 42 43  1  0  0  0  0
 42116  1  0  0  0  0
 43 46  1  0  0  0  0
 43117  1  0  0  0  0
 44118  1  0  0  0  0
 44119  1  0  0  0  0
 44120  1  0  0  0  0
 45121  1  0  0  0  0
 46 49  1  1  0  0  0
 46122  1  0  0  0  0
 47 50  1  0  0  0  0
 47123  1  0  0  0  0
 47124  1  0  0  0  0
 48 54  1  0  0  0  0
 49126  1  0  0  0  0
 49127  1  0  0  0  0
 49128  1  0  0  0  0
 50130  1  0  0  0  0
 50131  1  0  0  0  0
 50132  1  0  0  0  0
 51133  1  0  0  0  0
 51134  1  0  0  0  0
 51135  1  0  0  0  0
 52 59  1  0  0  0  0
 52 64  1  0  0  0  0
 52136  1  0  0  0  0
 53 55  1  0  0  0  0
 53137  1  0  0  0  0
 54138  1  0  0  0  0
 54139  1  0  0  0  0
 54140  1  0  0  0  0
 55 56  1  0  0  0  0
 55141  1  0  0  0  0
 55142  1  0  0  0  0
 56 57  1  0  0  0  0
 56143  1  0  0  0  0
 57 58  1  0  0  0  0
 57144  1  0  0  0  0
 58 63  1  6  0  0  0
 58145  1  0  0  0  0
 59 60  1  0  0  0  0
 59 62  2  0  0  0  0
 60 61  1  0  0  0  0
 60 67  2  3  0  0  0
 61 65  1  0  0  0  0
 61 69  1  0  0  0  0
 62 66  1  0  0  0  0
 63146  1  0  0  0  0
 63147  1  0  0  0  0
 63148  1  0  0  0  0
 64 70  3  0  0  0  0
 65 66  1  0  0  0  0
 65149  1  0  0  0  0
 65150  1  0  0  0  0
 67 71  1  0  0  0  0
 67152  1  0  0  0  0
 68 75  1  0  0  0  0
 69 80  3  0  0  0  0
 70 79  1  0  0  0  0
 71155  1  0  0  0  0
 71156  1  0  0  0  0
 72 73  1  0  0  0  0
 72 74  1  0  0  0  0
 72157  1  0  0  0  0
 73 76  1  0  0  0  0
 73158  1  0  0  0  0
 74 77  1  0  0  0  0
 74159  1  0  0  0  0
 75 81  2  0  0  0  0
 75 82  1  0  0  0  0
 76 84  1  6  0  0  0
 76160  1  0  0  0  0
 77161  1  0  0  0  0
 79 83  2  3  0  0  0
 79162  1  0  0  0  0
 80 83  1  0  0  0  0
 81 86  1  0  0  0  0
 81 88  1  0  0  0  0
 82 87  2  0  0  0  0
 83163  1  0  0  0  0
 84164  1  0  0  0  0
 84165  1  0  0  0  0
 84166  1  0  0  0  0
 85 86  2  0  0  0  0
 85 87  1  0  0  0  0
 88169  1  0  0  0  0
 88170  1  0  0  0  0
 88171  1  0  0  0  0
 89172  1  0  0  0  0
 89173  1  0  0  0  0
 89174  1  0  0  0  0
 90 92  1  0  0  0  0
 90 94  1  0  0  0  0
 90 95  1  0  0  0  0
 91175  1  0  0  0  0
 91176  1  0  0  0  0
 91177  1  0  0  0  0
 92 96  1  0  0  0  0
 92179  1  0  0  0  0
 92180  1  0  0  0  0
 93181  1  0  0  0  0
 93182  1  0  0  0  0
 93183  1  0  0  0  0
 94184  1  0  0  0  0
 94185  1  0  0  0  0
 94186  1  0  0  0  0
 95187  1  0  0  0  0
 95188  1  0  0  0  0
 95189  1  0  0  0  0
 97 98  1  0  0  0  0
 97 99  1  0  0  0  0
 98100  2  0  0  0  0
 98101  1  0  0  0  0
 99191  1  0  0  0  0
 99192  1  0  0  0  0
 99193  1  0  0  0  0
100102  1  0  0  0  0
100194  1  0  0  0  0
101103  2  0  0  0  0
101195  1  0  0  0  0
102104  2  0  0  0  0
102196  1  0  0  0  0
103104  1  0  0  0  0
103197  1  0  0  0  0
105106  1  0  0  0  0
105198  1  0  0  0  0
105199  1  0  0  0  0
106107  1  0  0  0  0
106200  1  0  0  0  0
106201  1  0  0  0  0
107108  1  0  0  0  0
107202  1  0  0  0  0
107203  1  0  0  0  0
M  END
> <PUBCHEM_COMPOUND_CID>
168322462

> <PUBCHEM_COMPOUND_CANONICALIZED>
1

> <PUBCHEM_CACTVS_COMPLEXITY>
3410

> <PUBCHEM_CACTVS_HBOND_ACCEPTOR>
30

> <PUBCHEM_CACTVS_HBOND_DONOR>
10

> <PUBCHEM_CACTVS_ROTATABLE_BOND>
32

> <PUBCHEM_CACTVS_SUBSKEYS>
AAADcfB/vgBgAgAAAAAAAAAAAAAAAAAAAAA0aJEiAAAAAACBQAAAHgQ8CAAADPz32AeyDoPyBgjoE6VyWAgSCAAkIBA6iIG+iNkfN7amtTqneWOn/hW/uQf67LzOoAABCAAYQABAAAIQADCAAAAAAAAAAA==

> <PUBCHEM_IUPAC_OPENEYE_NAME>
S-[(2R,3S,4S,6S)-6-[[(2R,3S,4R,5R,6R)-5-[(2S,4S,5R)-5-[acetyl(ethyl)amino]-4-methoxy-5-methyl-tetrahydropyran-2-yl]oxy-6-[[(2S,9R)-13-[2-[[3-[2-[1-[4-(4-amino-4-oxo-butoxy)phenyl]ethylidene]hydrazino]-1,1-dimethyl-3-oxo-propyl]disulfanyl]ethylidene]-9-hydroxy-12-(methoxycarbonylamino)-11-oxo-2-bicyclo[7.3.1]trideca-1(12),5-dien-3,7-diynyl]oxy]-4-hydroxy-2-methyl-tetrahydropyran-3-yl]amino]oxy-4-hydroxy-2-methyl-tetrahydropyran-3-yl] 4-[(3R,4R,5S,6S)-3,5-dihydroxy-4-methoxy-6-methyl-tetrahydropyran-2-yl]oxy-3-hydroxy-5-iodo-2-methoxy-6-methyl-benzenecarbothioate

> <PUBCHEM_IUPAC_CAS_NAME>
4-[[(3R,4R,5S,6S)-3,5-dihydroxy-4-methoxy-6-methyl-2-oxanyl]oxy]-3-hydroxy-5-iodo-2-methoxy-6-methylbenzenecarbothioic acid S-[(2R,3S,4S,6S)-6-[[(2R,3S,4R,5R,6R)-5-[[(2S,4S,5R)-5-[acetyl(ethyl)amino]-4-methoxy-5-methyl-2-oxanyl]oxy]-6-[[(2S,9R)-13-[2-[[4-[2-[1-[4-(4-amino-4-oxobutoxy)phenyl]ethylidene]hydrazinyl]-2-methyl-4-oxobutan-2-yl]disulfanyl]ethylidene]-9-hydroxy-12-(methoxycarbonylamino)-11-oxo-2-bicyclo[7.3.1]trideca-1(12),5-dien-3,7-diynyl]oxy]-4-hydroxy-2-methyl-3-oxanyl]amino]oxy-4-hydroxy-2-methyl-3-oxanyl] ester

> <PUBCHEM_IUPAC_NAME_MARKUP>
<I>S</I>-[(2<I>R</I>,3<I>S</I>,4<I>S</I>,6<I>S</I>)-6-[[(2<I>R</I>,3<I>S</I>,4<I>R</I>,5<I>R</I>,6<I>R</I>)-5-[(2<I>S</I>,4<I>S</I>,5<I>R</I>)-5-[acetyl(ethyl)amino]-4-methoxy-5-methyloxan-2-yl]oxy-6-[[(2<I>S</I>,9<I>R</I>)-13-[2-[[4-[2-[1-[4-(4-amino-4-oxobutoxy)phenyl]ethylidene]hydrazinyl]-2-methyl-4-oxobutan-2-yl]disulfanyl]ethylidene]-9-hydroxy-12-(methoxycarbonylamino)-11-oxo-2-bicyclo[7.3.1]trideca-1(12),5-dien-3,7-diynyl]oxy]-4-hydroxy-2-methyloxan-3-yl]amino]oxy-4-hydroxy-2-methyloxan-3-yl] 4-[(3<I>R</I>,4<I>R</I>,5<I>S</I>,6<I>S</I>)-3,5-dihydroxy-4-methoxy-6-methyloxan-2-yl]oxy-3-hydroxy-5-iodo-2-methoxy-6-methylbenzenecarbothioate

> <PUBCHEM_IUPAC_NAME>
S-[(2R,3S,4S,6S)-6-[[(2R,3S,4R,5R,6R)-5-[(2S,4S,5R)-5-[acetyl(ethyl)amino]-4-methoxy-5-methyloxan-2-yl]oxy-6-[[(2S,9R)-13-[2-[[4-[2-[1-[4-(4-amino-4-oxobutoxy)phenyl]ethylidene]hydrazinyl]-2-methyl-4-oxobutan-2-yl]disulfanyl]ethylidene]-9-hydroxy-12-(methoxycarbonylamino)-11-oxo-2-bicyclo[7.3.1]trideca-1(12),5-dien-3,7-diynyl]oxy]-4-hydroxy-2-methyloxan-3-yl]amino]oxy-4-hydroxy-2-methyloxan-3-yl] 4-[(3R,4R,5S,6S)-3,5-dihydroxy-4-methoxy-6-methyloxan-2-yl]oxy-3-hydroxy-5-iodo-2-methoxy-6-methylbenzenecarbothioate

> <PUBCHEM_IUPAC_SYSTEMATIC_NAME>
S-[(2R,3S,4S,6S)-6-[[(2R,3S,4R,5R,6R)-6-[[(2S,9R)-13-[2-[[4-[2-[1-[4-(4-azanyl-4-oxidanylidene-butoxy)phenyl]ethylidene]hydrazinyl]-2-methyl-4-oxidanylidene-butan-2-yl]disulfanyl]ethylidene]-12-(methoxycarbonylamino)-9-oxidanyl-11-oxidanylidene-2-bicyclo[7.3.1]trideca-1(12),5-dien-3,7-diynyl]oxy]-5-[(2S,4S,5R)-5-[ethanoyl(ethyl)amino]-4-methoxy-5-methyl-oxan-2-yl]oxy-2-methyl-4-oxidanyl-oxan-3-yl]amino]oxy-2-methyl-4-oxidanyl-oxan-3-yl] 5-iodanyl-2-methoxy-4-[(3R,4R,5S,6S)-4-methoxy-6-methyl-3,5-bis(oxidanyl)oxan-2-yl]oxy-6-methyl-3-oxidanyl-benzenecarbothioate

> <PUBCHEM_IUPAC_TRADITIONAL_NAME>
4-[(3R,4R,5S,6S)-3,5-dihydroxy-4-methoxy-6-methyl-tetrahydropyran-2-yl]oxy-3-hydroxy-5-iodo-2-methoxy-6-methyl-thiobenzoic acid S-[(2R,3S,4S,6S)-6-[[(2R,3S,4R,5R,6R)-5-[(2S,4S,5R)-5-[acetyl(ethyl)amino]-4-methoxy-5-methyl-tetrahydropyran-2-yl]oxy-6-[[(2S,9R)-13-[2-[[3-[N'-[1-[4-(4-amino-4-keto-butoxy)phenyl]ethylidene]hydrazino]-3-keto-1,1-dimethyl-propyl]disulfanyl]ethylidene]-12-(carbomethoxyamino)-9-hydroxy-11-keto-2-bicyclo[7.3.1]trideca-1(12),5-dien-3,7-diynyl]oxy]-4-hydroxy-2-methyl-tetrahydropyran-3-yl]amino]oxy-4-hydroxy-2-methyl-tetrahydropyran-3-yl] ester

> <PUBCHEM_IUPAC_INCHI>
InChI=1S/C73H97IN6O25S3/c1-15-80(41(7)81)72(10)35-98-51(32-48(72)93-11)103-65-59(87)56(79-105-52-31-45(82)66(40(6)99-52)107-67(90)53-36(2)55(74)63(60(88)62(53)94-12)104-68-61(89)64(95-13)58(86)39(5)101-68)38(4)100-69(65)102-47-21-18-16-17-19-28-73(92)33-46(83)57(76-70(91)96-14)54(47)44(73)27-30-106-108-71(8,9)34-50(85)78-77-37(3)42-23-25-43(26-24-42)97-29-20-22-49(75)84/h16-17,23-27,38-40,45,47-48,51-52,56,58-59,61,64-66,68-69,79,82,86-89,92H,15,20,22,29-35H2,1-14H3,(H2,75,84)(H,76,91)(H,78,85)/t38-,39+,40-,45+,47+,48+,51+,52+,56-,58+,59-,61-,64-,65-,66-,68?,69+,72-,73+/m1/s1

> <PUBCHEM_IUPAC_INCHIKEY>
IUPYOZANCCCTSM-HATVIOBMSA-N

> <PUBCHEM_XLOGP3_AA>
2.3

> <PUBCHEM_EXACT_MASS>
1680.47102

> <PUBCHEM_MOLECULAR_FORMULA>
C73H97IN6O25S3

> <PUBCHEM_MOLECULAR_WEIGHT>
1681.7

> <PUBCHEM_OPENEYE_CAN_SMILES>
CCN(C(=O)C)C1(COC(CC1OC)OC2C(C(C(OC2OC3C#CC=CC#CC4(CC(=O)C(=C3C4=CCSSC(C)(C)CC(=O)NN=C(C)C5=CC=C(C=C5)OCCCC(=O)N)NC(=O)OC)O)C)NOC6CC(C(C(O6)C)SC(=O)C7=C(C(=C(C(=C7OC)O)OC8C(C(C(C(O8)C)O)OC)O)I)C)O)O)C

> <PUBCHEM_OPENEYE_ISO_SMILES>
CCN(C(=O)C)[C@@]1(CO[C@H](C[C@@H]1OC)O[C@@H]2[C@@H]([C@@H]([C@H](O[C@H]2O[C@H]3C#CC=CC#C[C@@]4(CC(=O)C(=C3C4=CCSSC(C)(C)CC(=O)NN=C(C)C5=CC=C(C=C5)OCCCC(=O)N)NC(=O)OC)O)C)NO[C@H]6C[C@@H]([C@@H]([C@H](O6)C)SC(=O)C7=C(C(=C(C(=C7OC)O)OC8[C@@H]([C@@H]([C@H]([C@@H](O8)C)O)OC)O)I)C)O)O)C

> <PUBCHEM_CACTVS_TPSA>
497

> <PUBCHEM_MONOISOTOPIC_WEIGHT>
1680.47102

> <PUBCHEM_TOTAL_CHARGE>
0

> <PUBCHEM_HEAVY_ATOM_COUNT>
108

> <PUBCHEM_ATOM_DEF_STEREO_COUNT>
18

> <PUBCHEM_ATOM_UDEF_STEREO_COUNT>
1

> <PUBCHEM_BOND_DEF_STEREO_COUNT>
0

> <PUBCHEM_BOND_UDEF_STEREO_COUNT>
3

> <PUBCHEM_ISOTOPIC_ATOM_COUNT>
0

> <PUBCHEM_COMPONENT_COUNT>
1

> <PUBCHEM_CACTVS_TAUTO_COUNT>
-1

> <PUBCHEM_COORDINATE_TYPE>
1
5
255

> <PUBCHEM_BONDANNOTATIONS>
42  10  6
100  102  8
101  103  8
102  104  8
103  104  8
53  11  6
56  14  5
61  15  5
77  18  3
57  2  5
72  20  6
73  21  5
74  22  6
36  30  6
43  31  6
34  97  1
46  49  5
58  63  6
39  6  5
41  6  6
60  67  1
37  7  6
75  81  8
75  82  8
76  84  6
79  83  1
81  86  8
82  87  8
85  86  8
85  87  8
45  9  5
52  9  5
98  100  8
98  101  8

$$$$
