124115349
  -OEChem-12122309462D

 25 26  0     0  0  0  0  0  0999 V2000
    8.2619   -0.9330    0.0000 S   0  0  0  0  0  0  0  0  0  0  0  0
    4.6783    1.6038    0.0000 S   0  0  0  0  0  0  0  0  0  0  0  0
    8.7619   -1.7990    0.0000 O   0  0  0  0  0  0  0  0  0  0  0  0
    6.2619   -0.9330    0.0000 O   0  0  0  0  0  0  0  0  0  0  0  0
    9.1279   -0.4330    0.0000 O   0  0  0  0  0  0  0  0  0  0  0  0
    7.3958   -1.4330    0.0000 O   0  0  0  0  0  0  0  0  0  0  0  0
    6.2619    0.7990    0.0000 N   0  0  0  0  0  0  0  0  0  0  0  0
    4.6783   -0.0057    0.0000 N   0  0  0  0  0  0  0  0  0  0  0  0
    7.7619   -0.0670    0.0000 C   0  0  0  0  0  0  0  0  0  0  0  0
    3.7320    1.2990    0.0000 C   0  0  0  0  0  0  0  0  0  0  0  0
    3.7320    0.2990    0.0000 C   0  0  0  0  0  0  0  0  0  0  0  0
    5.2619    0.7990    0.0000 C   0  0  0  0  0  0  0  0  0  0  0  0
    6.7619   -0.0670    0.0000 C   0  0  0  0  0  0  0  0  0  0  0  0
    2.8660    1.7990    0.0000 C   0  0  0  0  0  0  0  0  0  0  0  0
    2.8660   -0.2010    0.0000 C   0  0  0  0  0  0  0  0  0  0  0  0
    2.0000    1.2990    0.0000 C   0  0  0  0  0  0  0  0  0  0  0  0
    2.0000    0.2990    0.0000 C   0  0  0  0  0  0  0  0  0  0  0  0
    8.3445    0.1451    0.0000 H   0  0  0  0  0  0  0  0  0  0  0  0
    7.6542    0.5436    0.0000 H   0  0  0  0  0  0  0  0  0  0  0  0
    6.5719    1.3360    0.0000 H   0  0  0  0  0  0  0  0  0  0  0  0
    2.8660    2.4190    0.0000 H   0  0  0  0  0  0  0  0  0  0  0  0
    2.8660   -0.8210    0.0000 H   0  0  0  0  0  0  0  0  0  0  0  0
    1.4631    1.6090    0.0000 H   0  0  0  0  0  0  0  0  0  0  0  0
    1.4631   -0.0110    0.0000 H   0  0  0  0  0  0  0  0  0  0  0  0
    9.3819   -1.7990    0.0000 H   0  0  0  0  0  0  0  0  0  0  0  0
  1  3  1  0  0  0  0
  1  5  2  0  0  0  0
  1  6  2  0  0  0  0
  1  9  1  0  0  0  0
  2 10  1  0  0  0  0
  2 12  1  0  0  0  0
  3 25  1  0  0  0  0
  4 13  2  0  0  0  0
  7 12  1  0  0  0  0
  7 13  1  0  0  0  0
  7 20  1  0  0  0  0
  8 11  1  0  0  0  0
  8 12  2  0  0  0  0
  9 13  1  0  0  0  0
  9 18  1  0  0  0  0
  9 19  1  0  0  0  0
 10 11  1  0  0  0  0
 10 14  2  0  0  0  0
 11 15  2  0  0  0  0
 14 16  1  0  0  0  0
 14 21  1  0  0  0  0
 15 17  1  0  0  0  0
 15 22  1  0  0  0  0
 16 17  2  0  0  0  0
 16 23  1  0  0  0  0
 17 24  1  0  0  0  0
M  END
> <PUBCHEM_COMPOUND_CID>
124115349

> <PUBCHEM_COMPOUND_CANONICALIZED>
1

> <PUBCHEM_CACTVS_COMPLEXITY>
392

> <PUBCHEM_CACTVS_HBOND_ACCEPTOR>
6

> <PUBCHEM_CACTVS_HBOND_DONOR>
2

> <PUBCHEM_CACTVS_ROTATABLE_BOND>
3

> <PUBCHEM_CACTVS_SUBSKEYS>
AAADccBzOABgAAAAAAAAAAAAAAAAAWAAAAAwAAAAAAAAAFgB8AAAHgQQCAAACAiF1gCx0bLIEIqsASVydHDD8KlhCjlJmDwwZJiIIKLgmZGEIAhokQJIyCcQAAAAAAAAAAAAAQAAAAAAAAACAAAAAAAAAA==

> <PUBCHEM_IUPAC_OPENEYE_NAME>
2-(1,3-benzothiazol-2-ylamino)-2-oxo-ethanesulfonic acid

> <PUBCHEM_IUPAC_CAS_NAME>
2-(1,3-benzothiazol-2-ylamino)-2-oxoethanesulfonic acid

> <PUBCHEM_IUPAC_NAME_MARKUP>
2-(1,3-benzothiazol-2-ylamino)-2-oxoethanesulfonic acid

> <PUBCHEM_IUPAC_NAME>
2-(1,3-benzothiazol-2-ylamino)-2-oxoethanesulfonic acid

> <PUBCHEM_IUPAC_SYSTEMATIC_NAME>
2-(1,3-benzothiazol-2-ylamino)-2-oxidanylidene-ethanesulfonic acid

> <PUBCHEM_IUPAC_TRADITIONAL_NAME>
2-(1,3-benzothiazol-2-ylamino)-2-keto-ethanesulfonic acid

> <PUBCHEM_IUPAC_INCHI>
InChI=1S/C9H8N2O4S2/c12-8(5-17(13,14)15)11-9-10-6-3-1-2-4-7(6)16-9/h1-4H,5H2,(H,10,11,12)(H,13,14,15)

> <PUBCHEM_IUPAC_INCHIKEY>
SYEABNIGTPGICH-UHFFFAOYSA-N

> <PUBCHEM_XLOGP3_AA>
1.4

> <PUBCHEM_EXACT_MASS>
271.99254909

> <PUBCHEM_MOLECULAR_FORMULA>
C9H8N2O4S2

> <PUBCHEM_MOLECULAR_WEIGHT>
272.3

> <PUBCHEM_OPENEYE_CAN_SMILES>
C1=CC=C2C(=C1)N=C(S2)NC(=O)CS(=O)(=O)O

> <PUBCHEM_OPENEYE_ISO_SMILES>
C1=CC=C2C(=C1)N=C(S2)NC(=O)CS(=O)(=O)O

> <PUBCHEM_CACTVS_TPSA>
133

> <PUBCHEM_MONOISOTOPIC_WEIGHT>
271.99254909

> <PUBCHEM_TOTAL_CHARGE>
0

> <PUBCHEM_HEAVY_ATOM_COUNT>
17

> <PUBCHEM_ATOM_DEF_STEREO_COUNT>
0

> <PUBCHEM_ATOM_UDEF_STEREO_COUNT>
0

> <PUBCHEM_BOND_DEF_STEREO_COUNT>
0

> <PUBCHEM_BOND_UDEF_STEREO_COUNT>
0

> <PUBCHEM_ISOTOPIC_ATOM_COUNT>
0

> <PUBCHEM_COMPONENT_COUNT>
1

> <PUBCHEM_CACTVS_TAUTO_COUNT>
-1

> <PUBCHEM_COORDINATE_TYPE>
1
5
255

> <PUBCHEM_BONDANNOTATIONS>
10  11  8
10  14  8
11  15  8
14  16  8
15  17  8
16  17  8
2  10  8
2  12  8
8  11  8
8  12  8

$$$$
