121488171
  -OEChem-12122308102D

 83 82  0     1  0  0  0  0  0999 V2000
    2.5369  -10.9400    0.0000 O   0  0  0  0  0  0  0  0  0  0  0  0
   16.3933   10.0600    0.0000 O   0  0  0  0  0  0  0  0  0  0  0  0
    9.4651    0.0600    0.0000 O   0  0  0  0  0  0  0  0  0  0  0  0
    4.2690  -10.9400    0.0000 O   0  0  0  0  0  0  0  0  0  0  0  0
   15.5273   11.5600    0.0000 O   0  0  0  0  0  0  0  0  0  0  0  0
    5.1350   -4.4400    0.0000 O   0  0  0  0  0  0  0  0  0  0  0  0
   11.1972    6.0600    0.0000 O   0  0  0  0  0  0  0  0  0  0  0  0
    8.5991   -3.4400    0.0000 O   0  0  0  0  0  0  0  0  0  0  0  0
   12.0632    2.5600    0.0000 O   0  0  0  0  0  0  0  0  0  0  0  0
    6.0010   -5.9400    0.0000 N   0  0  0  0  0  0  0  0  0  0  0  0
   12.9292    6.0600    0.0000 N   0  0  0  0  0  0  0  0  0  0  0  0
    2.5369   -8.9400    0.0000 N   0  0  0  0  0  0  0  0  0  0  0  0
   13.7953   10.5600    0.0000 N   0  0  0  0  0  0  0  0  0  0  0  0
    7.7331   -1.9400    0.0000 N   0  0  0  0  0  0  0  0  0  0  0  0
   10.3312    2.5600    0.0000 N   0  0  0  0  0  0  0  0  0  0  0  0
    4.2690   -7.9400    0.0000 C   0  0  0  0  0  0  0  0  0  0  0  0
   13.7953    8.5600    0.0000 C   0  0  0  0  0  0  0  0  0  0  0  0
    4.2690   -8.9400    0.0000 C   0  0  0  0  0  0  0  0  0  0  0  0
   14.6613    9.0600    0.0000 C   0  0  0  0  0  0  0  0  0  0  0  0
    5.1350   -7.4400    0.0000 C   0  0  0  0  0  0  0  0  0  0  0  0
   13.7953    7.5600    0.0000 C   0  0  0  0  0  0  0  0  0  0  0  0
    3.4030   -9.4400    0.0000 C   0  0  1  0  0  0  0  0  0  0  0  0
   14.6613   10.0600    0.0000 C   0  0  1  0  0  0  0  0  0  0  0  0
    5.1350   -6.4400    0.0000 C   0  0  0  0  0  0  0  0  0  0  0  0
   12.9292    7.0600    0.0000 C   0  0  0  0  0  0  0  0  0  0  0  0
    3.4030  -10.4400    0.0000 C   0  0  0  0  0  0  0  0  0  0  0  0
   15.5273   10.5600    0.0000 C   0  0  0  0  0  0  0  0  0  0  0  0
    6.0010   -4.9400    0.0000 C   0  0  0  0  0  0  0  0  0  0  0  0
    6.8671   -4.4400    0.0000 C   0  0  0  0  0  0  0  0  0  0  0  0
   12.0632    5.5600    0.0000 C   0  0  0  0  0  0  0  0  0  0  0  0
   12.0632    4.5600    0.0000 C   0  0  0  0  0  0  0  0  0  0  0  0
    6.8671   -3.4400    0.0000 C   0  0  0  0  0  0  0  0  0  0  0  0
   11.1972    4.0600    0.0000 C   0  0  0  0  0  0  0  0  0  0  0  0
    7.7331   -2.9400    0.0000 C   0  0  0  0  0  0  0  0  0  0  0  0
   11.1972    3.0600    0.0000 C   0  0  0  0  0  0  0  0  0  0  0  0
    8.5991   -1.4400    0.0000 C   0  0  0  0  0  0  0  0  0  0  0  0
   10.3312    1.5600    0.0000 C   0  0  0  0  0  0  0  0  0  0  0  0
    8.5991   -0.4400    0.0000 C   0  0  0  0  0  0  0  0  0  0  0  0
    9.4651    1.0600    0.0000 C   0  0  0  0  0  0  0  0  0  0  0  0
    4.0569   -7.3574    0.0000 H   0  0  0  0  0  0  0  0  0  0  0  0
    3.6584   -8.0477    0.0000 H   0  0  0  0  0  0  0  0  0  0  0  0
   13.5832    9.1426    0.0000 H   0  0  0  0  0  0  0  0  0  0  0  0
   13.1847    8.4523    0.0000 H   0  0  0  0  0  0  0  0  0  0  0  0
    4.4810   -9.5226    0.0000 H   0  0  0  0  0  0  0  0  0  0  0  0
    4.8796   -8.8323    0.0000 H   0  0  0  0  0  0  0  0  0  0  0  0
   14.8733    8.4774    0.0000 H   0  0  0  0  0  0  0  0  0  0  0  0
   15.2719    9.1677    0.0000 H   0  0  0  0  0  0  0  0  0  0  0  0
    5.3471   -8.0226    0.0000 H   0  0  0  0  0  0  0  0  0  0  0  0
    5.7456   -7.3323    0.0000 H   0  0  0  0  0  0  0  0  0  0  0  0
   14.0073    6.9774    0.0000 H   0  0  0  0  0  0  0  0  0  0  0  0
   14.4058    7.6677    0.0000 H   0  0  0  0  0  0  0  0  0  0  0  0
    3.4030   -8.8200    0.0000 H   0  0  0  0  0  0  0  0  0  0  0  0
   14.1244    9.7500    0.0000 H   0  0  0  0  0  0  0  0  0  0  0  0
    4.9230   -5.8574    0.0000 H   0  0  0  0  0  0  0  0  0  0  0  0
    4.5244   -6.5477    0.0000 H   0  0  0  0  0  0  0  0  0  0  0  0
   12.7172    7.6426    0.0000 H   0  0  0  0  0  0  0  0  0  0  0  0
   12.3187    6.9523    0.0000 H   0  0  0  0  0  0  0  0  0  0  0  0
    6.5380   -6.2500    0.0000 H   0  0  0  0  0  0  0  0  0  0  0  0
   13.4662    5.7500    0.0000 H   0  0  0  0  0  0  0  0  0  0  0  0
    7.0791   -5.0226    0.0000 H   0  0  0  0  0  0  0  0  0  0  0  0
    7.4776   -4.3323    0.0000 H   0  0  0  0  0  0  0  0  0  0  0  0
   12.2753    3.9774    0.0000 H   0  0  0  0  0  0  0  0  0  0  0  0
   12.6738    4.6677    0.0000 H   0  0  0  0  0  0  0  0  0  0  0  0
    2.0000   -9.2500    0.0000 H   0  0  0  0  0  0  0  0  0  0  0  0
    2.5369   -8.3200    0.0000 H   0  0  0  0  0  0  0  0  0  0  0  0
   13.2583   10.2500    0.0000 H   0  0  0  0  0  0  0  0  0  0  0  0
   13.7953   11.1800    0.0000 H   0  0  0  0  0  0  0  0  0  0  0  0
    6.6550   -2.8574    0.0000 H   0  0  0  0  0  0  0  0  0  0  0  0
    6.2565   -3.5477    0.0000 H   0  0  0  0  0  0  0  0  0  0  0  0
   10.9851    4.6426    0.0000 H   0  0  0  0  0  0  0  0  0  0  0  0
   10.5866    3.9523    0.0000 H   0  0  0  0  0  0  0  0  0  0  0  0
    8.8112   -2.0226    0.0000 H   0  0  0  0  0  0  0  0  0  0  0  0
    9.2097   -1.3323    0.0000 H   0  0  0  0  0  0  0  0  0  0  0  0
   10.5432    0.9774    0.0000 H   0  0  0  0  0  0  0  0  0  0  0  0
   10.9417    1.6677    0.0000 H   0  0  0  0  0  0  0  0  0  0  0  0
    8.3871    0.1426    0.0000 H   0  0  0  0  0  0  0  0  0  0  0  0
    7.9885   -0.5477    0.0000 H   0  0  0  0  0  0  0  0  0  0  0  0
    9.2531    1.6426    0.0000 H   0  0  0  0  0  0  0  0  0  0  0  0
    8.8546    0.9523    0.0000 H   0  0  0  0  0  0  0  0  0  0  0  0
    7.1962   -1.6300    0.0000 H   0  0  0  0  0  0  0  0  0  0  0  0
    9.7942    2.8700    0.0000 H   0  0  0  0  0  0  0  0  0  0  0  0
    2.5369  -11.5600    0.0000 H   0  0  0  0  0  0  0  0  0  0  0  0
   16.9303   10.3700    0.0000 H   0  0  0  0  0  0  0  0  0  0  0  0
  1 26  1  0  0  0  0
  1 82  1  0  0  0  0
  2 27  1  0  0  0  0
  2 83  1  0  0  0  0
  3 38  1  0  0  0  0
  3 39  1  0  0  0  0
  4 26  2  0  0  0  0
  5 27  2  0  0  0  0
  6 28  2  0  0  0  0
  7 30  2  0  0  0  0
  8 34  2  0  0  0  0
  9 35  2  0  0  0  0
 10 24  1  0  0  0  0
 10 28  1  0  0  0  0
 10 58  1  0  0  0  0
 11 25  1  0  0  0  0
 11 30  1  0  0  0  0
 11 59  1  0  0  0  0
 22 12  1  1  0  0  0
 12 64  1  0  0  0  0
 12 65  1  0  0  0  0
 23 13  1  6  0  0  0
 13 66  1  0  0  0  0
 13 67  1  0  0  0  0
 14 34  1  0  0  0  0
 14 36  1  0  0  0  0
 14 80  1  0  0  0  0
 15 35  1  0  0  0  0
 15 37  1  0  0  0  0
 15 81  1  0  0  0  0
 16 18  1  0  0  0  0
 16 20  1  0  0  0  0
 16 40  1  0  0  0  0
 16 41  1  0  0  0  0
 17 19  1  0  0  0  0
 17 21  1  0  0  0  0
 17 42  1  0  0  0  0
 17 43  1  0  0  0  0
 18 22  1  0  0  0  0
 18 44  1  0  0  0  0
 18 45  1  0  0  0  0
 19 23  1  0  0  0  0
 19 46  1  0  0  0  0
 19 47  1  0  0  0  0
 20 24  1  0  0  0  0
 20 48  1  0  0  0  0
 20 49  1  0  0  0  0
 21 25  1  0  0  0  0
 21 50  1  0  0  0  0
 21 51  1  0  0  0  0
 22 26  1  0  0  0  0
 22 52  1  0  0  0  0
 23 27  1  0  0  0  0
 23 53  1  0  0  0  0
 24 54  1  0  0  0  0
 24 55  1  0  0  0  0
 25 56  1  0  0  0  0
 25 57  1  0  0  0  0
 28 29  1  0  0  0  0
 29 32  1  0  0  0  0
 29 60  1  0  0  0  0
 29 61  1  0  0  0  0
 30 31  1  0  0  0  0
 31 33  1  0  0  0  0
 31 62  1  0  0  0  0
 31 63  1  0  0  0  0
 32 34  1  0  0  0  0
 32 68  1  0  0  0  0
 32 69  1  0  0  0  0
 33 35  1  0  0  0  0
 33 70  1  0  0  0  0
 33 71  1  0  0  0  0
 36 38  1  0  0  0  0
 36 72  1  0  0  0  0
 36 73  1  0  0  0  0
 37 39  1  0  0  0  0
 37 74  1  0  0  0  0
 37 75  1  0  0  0  0
 38 76  1  0  0  0  0
 38 77  1  0  0  0  0
 39 78  1  0  0  0  0
 39 79  1  0  0  0  0
M  END
> <PUBCHEM_COMPOUND_CID>
121488171

> <PUBCHEM_COMPOUND_CANONICALIZED>
1

> <PUBCHEM_CACTVS_COMPLEXITY>
719

> <PUBCHEM_CACTVS_HBOND_ACCEPTOR>
11

> <PUBCHEM_CACTVS_HBOND_DONOR>
8

> <PUBCHEM_CACTVS_ROTATABLE_BOND>
24

> <PUBCHEM_CACTVS_SUBSKEYS>
AAADcfB7vAAAAAAAAAAAAAAAAAAAAAAAAAAAAAAAAAAAAAAAAAAAHgAQCAAACCjhgAYACALABgAIAAGQGAAAAAAAAAAAAIGIAAACABIAgAAHQAAEFgCQAAGdSAAAAAAAAAAAAAAAAAAAAAAAAAAAAAAAAA==

> <PUBCHEM_IUPAC_OPENEYE_NAME>
(2S)-2-amino-6-[[4-[2-[2-[[4-[[(5S)-5-amino-5-carboxy-pentyl]amino]-4-oxo-butanoyl]amino]ethoxy]ethylamino]-4-oxo-butanoyl]amino]hexanoic acid

> <PUBCHEM_IUPAC_CAS_NAME>
(2S)-2-amino-6-[[4-[2-[2-[[4-[[(5S)-5-amino-5-carboxypentyl]amino]-1,4-dioxobutyl]amino]ethoxy]ethylamino]-1,4-dioxobutyl]amino]hexanoic acid

> <PUBCHEM_IUPAC_NAME_MARKUP>
(2<I>S</I>)-2-amino-6-[[4-[2-[2-[[4-[[(5<I>S</I>)-5-amino-5-carboxypentyl]amino]-4-oxobutanoyl]amino]ethoxy]ethylamino]-4-oxobutanoyl]amino]hexanoic acid

> <PUBCHEM_IUPAC_NAME>
(2S)-2-amino-6-[[4-[2-[2-[[4-[[(5S)-5-amino-5-carboxypentyl]amino]-4-oxobutanoyl]amino]ethoxy]ethylamino]-4-oxobutanoyl]amino]hexanoic acid

> <PUBCHEM_IUPAC_SYSTEMATIC_NAME>
(2S)-2-azanyl-6-[[4-[2-[2-[[4-[[(5S)-5-azanyl-6-oxidanyl-6-oxidanylidene-hexyl]amino]-4-oxidanylidene-butanoyl]amino]ethoxy]ethylamino]-4-oxidanylidene-butanoyl]amino]hexanoic acid

> <PUBCHEM_IUPAC_TRADITIONAL_NAME>
(2S)-2-amino-6-[[4-[2-[2-[[4-[[(5S)-5-amino-5-carboxy-pentyl]amino]-4-keto-butanoyl]amino]ethoxy]ethylamino]-4-keto-butanoyl]amino]hexanoic acid

> <PUBCHEM_IUPAC_INCHI>
InChI=1S/C24H44N6O9/c25-17(23(35)36)5-1-3-11-27-19(31)7-9-21(33)29-13-15-39-16-14-30-22(34)10-8-20(32)28-12-4-2-6-18(26)24(37)38/h17-18H,1-16,25-26H2,(H,27,31)(H,28,32)(H,29,33)(H,30,34)(H,35,36)(H,37,38)/t17-,18-/m0/s1

> <PUBCHEM_IUPAC_INCHIKEY>
CQPWQUAJPPFCDP-ROUUACIJSA-N

> <PUBCHEM_XLOGP3_AA>
-8

> <PUBCHEM_EXACT_MASS>
560.31697700

> <PUBCHEM_MOLECULAR_FORMULA>
C24H44N6O9

> <PUBCHEM_MOLECULAR_WEIGHT>
560.6

> <PUBCHEM_OPENEYE_CAN_SMILES>
C(CCNC(=O)CCC(=O)NCCOCCNC(=O)CCC(=O)NCCCCC(C(=O)O)N)CC(C(=O)O)N

> <PUBCHEM_OPENEYE_ISO_SMILES>
C(CCNC(=O)CCC(=O)NCCOCCNC(=O)CCC(=O)NCCCC[C@@H](C(=O)O)N)C[C@@H](C(=O)O)N

> <PUBCHEM_CACTVS_TPSA>
252

> <PUBCHEM_MONOISOTOPIC_WEIGHT>
560.31697700

> <PUBCHEM_TOTAL_CHARGE>
0

> <PUBCHEM_HEAVY_ATOM_COUNT>
39

> <PUBCHEM_ATOM_DEF_STEREO_COUNT>
2

> <PUBCHEM_ATOM_UDEF_STEREO_COUNT>
0

> <PUBCHEM_BOND_DEF_STEREO_COUNT>
0

> <PUBCHEM_BOND_UDEF_STEREO_COUNT>
0

> <PUBCHEM_ISOTOPIC_ATOM_COUNT>
0

> <PUBCHEM_COMPONENT_COUNT>
1

> <PUBCHEM_CACTVS_TAUTO_COUNT>
-1

> <PUBCHEM_COORDINATE_TYPE>
1
5
255

> <PUBCHEM_BONDANNOTATIONS>
22  12  5
23  13  6

$$$$
