86278362
  -OEChem-12122308102D

 52 51  0     1  0  0  0  0  0999 V2000
    3.7320   -3.7500    0.0000 O   0  0  0  0  0  0  0  0  0  0  0  0
    5.4641    1.2500    0.0000 O   0  0  0  0  0  0  0  0  0  0  0  0
   10.6603    5.2500    0.0000 O   0  0  0  0  0  0  0  0  0  0  0  0
    9.7942    6.7500    0.0000 O   0  0  0  0  0  0  0  0  0  0  0  0
    2.8660   -6.2500    0.0000 O   0  0  0  0  0  0  0  0  0  0  0  0
    7.1962    1.2500    0.0000 N   0  0  0  0  0  0  0  0  0  0  0  0
    8.0622    5.7500    0.0000 N   0  0  0  0  0  0  0  0  0  0  0  0
    8.0622    3.7500    0.0000 C   0  0  0  0  0  0  0  0  0  0  0  0
    8.0622    2.7500    0.0000 C   0  0  0  0  0  0  0  0  0  0  0  0
    8.9282    4.2500    0.0000 C   0  0  0  0  0  0  0  0  0  0  0  0
    5.4641   -0.7500    0.0000 C   0  0  0  0  0  0  0  0  0  0  0  0
    5.4641   -1.7500    0.0000 C   0  0  0  0  0  0  0  0  0  0  0  0
    7.1962    2.2500    0.0000 C   0  0  0  0  0  0  0  0  0  0  0  0
    6.3301   -0.2500    0.0000 C   0  0  0  0  0  0  0  0  0  0  0  0
    4.5981   -2.2500    0.0000 C   0  0  0  0  0  0  0  0  0  0  0  0
    8.9282    5.2500    0.0000 C   0  0  1  0  0  0  0  0  0  0  0  0
    6.3301    0.7500    0.0000 C   0  0  0  0  0  0  0  0  0  0  0  0
    4.5981   -3.2500    0.0000 C   0  0  0  0  0  0  0  0  0  0  0  0
    9.7942    5.7500    0.0000 C   0  0  0  0  0  0  0  0  0  0  0  0
    3.7320   -4.7500    0.0000 C   0  0  0  0  0  0  0  0  0  0  0  0
    2.8660   -5.2500    0.0000 C   0  0  0  0  0  0  0  0  0  0  0  0
    2.0000   -6.7500    0.0000 C   0  0  0  0  0  0  0  0  0  0  0  0
    7.8501    4.3326    0.0000 H   0  0  0  0  0  0  0  0  0  0  0  0
    7.4516    3.6423    0.0000 H   0  0  0  0  0  0  0  0  0  0  0  0
    8.2742    2.1674    0.0000 H   0  0  0  0  0  0  0  0  0  0  0  0
    8.6728    2.8577    0.0000 H   0  0  0  0  0  0  0  0  0  0  0  0
    9.1403    3.6674    0.0000 H   0  0  0  0  0  0  0  0  0  0  0  0
    9.5388    4.3577    0.0000 H   0  0  0  0  0  0  0  0  0  0  0  0
    5.2520   -0.1674    0.0000 H   0  0  0  0  0  0  0  0  0  0  0  0
    4.8535   -0.8577    0.0000 H   0  0  0  0  0  0  0  0  0  0  0  0
    5.6762   -2.3326    0.0000 H   0  0  0  0  0  0  0  0  0  0  0  0
    6.0747   -1.6423    0.0000 H   0  0  0  0  0  0  0  0  0  0  0  0
    6.9841    2.8326    0.0000 H   0  0  0  0  0  0  0  0  0  0  0  0
    6.5856    2.1423    0.0000 H   0  0  0  0  0  0  0  0  0  0  0  0
    6.5422   -0.8326    0.0000 H   0  0  0  0  0  0  0  0  0  0  0  0
    6.9407   -0.1423    0.0000 H   0  0  0  0  0  0  0  0  0  0  0  0
    4.3860   -1.6674    0.0000 H   0  0  0  0  0  0  0  0  0  0  0  0
    3.9875   -2.3577    0.0000 H   0  0  0  0  0  0  0  0  0  0  0  0
    8.9282    5.8700    0.0000 H   0  0  0  0  0  0  0  0  0  0  0  0
    7.7331    0.9400    0.0000 H   0  0  0  0  0  0  0  0  0  0  0  0
    4.8101   -3.8326    0.0000 H   0  0  0  0  0  0  0  0  0  0  0  0
    5.2087   -3.1423    0.0000 H   0  0  0  0  0  0  0  0  0  0  0  0
    7.5252    5.4400    0.0000 H   0  0  0  0  0  0  0  0  0  0  0  0
    8.0622    6.3700    0.0000 H   0  0  0  0  0  0  0  0  0  0  0  0
    3.9441   -5.3326    0.0000 H   0  0  0  0  0  0  0  0  0  0  0  0
    4.3426   -4.6423    0.0000 H   0  0  0  0  0  0  0  0  0  0  0  0
    2.6540   -4.6674    0.0000 H   0  0  0  0  0  0  0  0  0  0  0  0
    2.2554   -5.3577    0.0000 H   0  0  0  0  0  0  0  0  0  0  0  0
   11.1972    5.5600    0.0000 H   0  0  0  0  0  0  0  0  0  0  0  0
    1.6900   -6.2131    0.0000 H   0  0  0  0  0  0  0  0  0  0  0  0
    1.4631   -7.0600    0.0000 H   0  0  0  0  0  0  0  0  0  0  0  0
    2.3100   -7.2869    0.0000 H   0  0  0  0  0  0  0  0  0  0  0  0
  1 18  1  0  0  0  0
  1 20  1  0  0  0  0
  2 17  2  0  0  0  0
  3 19  1  0  0  0  0
  3 49  1  0  0  0  0
  4 19  2  0  0  0  0
  5 21  1  0  0  0  0
  5 22  1  0  0  0  0
  6 13  1  0  0  0  0
  6 17  1  0  0  0  0
  6 40  1  0  0  0  0
 16  7  1  6  0  0  0
  7 43  1  0  0  0  0
  7 44  1  0  0  0  0
  8  9  1  0  0  0  0
  8 10  1  0  0  0  0
  8 23  1  0  0  0  0
  8 24  1  0  0  0  0
  9 13  1  0  0  0  0
  9 25  1  0  0  0  0
  9 26  1  0  0  0  0
 10 16  1  0  0  0  0
 10 27  1  0  0  0  0
 10 28  1  0  0  0  0
 11 12  1  0  0  0  0
 11 14  1  0  0  0  0
 11 29  1  0  0  0  0
 11 30  1  0  0  0  0
 12 15  1  0  0  0  0
 12 31  1  0  0  0  0
 12 32  1  0  0  0  0
 13 33  1  0  0  0  0
 13 34  1  0  0  0  0
 14 17  1  0  0  0  0
 14 35  1  0  0  0  0
 14 36  1  0  0  0  0
 15 18  1  0  0  0  0
 15 37  1  0  0  0  0
 15 38  1  0  0  0  0
 16 19  1  0  0  0  0
 16 39  1  0  0  0  0
 18 41  1  0  0  0  0
 18 42  1  0  0  0  0
 20 21  1  0  0  0  0
 20 45  1  0  0  0  0
 20 46  1  0  0  0  0
 21 47  1  0  0  0  0
 21 48  1  0  0  0  0
 22 50  1  0  0  0  0
 22 51  1  0  0  0  0
 22 52  1  0  0  0  0
M  END
> <PUBCHEM_COMPOUND_CID>
86278362

> <PUBCHEM_COMPOUND_CANONICALIZED>
1

> <PUBCHEM_CACTVS_COMPLEXITY>
300

> <PUBCHEM_CACTVS_HBOND_ACCEPTOR>
6

> <PUBCHEM_CACTVS_HBOND_DONOR>
3

> <PUBCHEM_CACTVS_ROTATABLE_BOND>
15

> <PUBCHEM_CACTVS_SUBSKEYS>
AAADceBzOAAAAAAAAAAAAAAAAAAAAAAAAAAAAAAAAAAAAAAAAAAAHgAQCAAACCjhgAYCCALABgAIAAGQGAAAAAAAAAAAAIGIAAADABIAgAAGQAAEFgCCAAGYSAAAAAAAAAAAAAAAAAAAAAAAAAAAAAAAAA==

> <PUBCHEM_IUPAC_OPENEYE_NAME>
(2S)-2-amino-6-[6-(2-methoxyethoxy)hexanoylamino]hexanoic acid

> <PUBCHEM_IUPAC_CAS_NAME>
(2S)-2-amino-6-[[6-(2-methoxyethoxy)-1-oxohexyl]amino]hexanoic acid

> <PUBCHEM_IUPAC_NAME_MARKUP>
(2<I>S</I>)-2-amino-6-[6-(2-methoxyethoxy)hexanoylamino]hexanoic acid

> <PUBCHEM_IUPAC_NAME>
(2S)-2-amino-6-[6-(2-methoxyethoxy)hexanoylamino]hexanoic acid

> <PUBCHEM_IUPAC_SYSTEMATIC_NAME>
(2S)-2-azanyl-6-[6-(2-methoxyethoxy)hexanoylamino]hexanoic acid

> <PUBCHEM_IUPAC_TRADITIONAL_NAME>
(2S)-2-amino-6-[6-(2-methoxyethoxy)hexanoylamino]hexanoic acid

> <PUBCHEM_IUPAC_INCHI>
InChI=1S/C15H30N2O5/c1-21-11-12-22-10-6-2-3-8-14(18)17-9-5-4-7-13(16)15(19)20/h13H,2-12,16H2,1H3,(H,17,18)(H,19,20)/t13-/m0/s1

> <PUBCHEM_IUPAC_INCHIKEY>
NPOCDVAOUKODSQ-ZDUSSCGKSA-N

> <PUBCHEM_XLOGP3_AA>
-2.3

> <PUBCHEM_EXACT_MASS>
318.21547206

> <PUBCHEM_MOLECULAR_FORMULA>
C15H30N2O5

> <PUBCHEM_MOLECULAR_WEIGHT>
318.41

> <PUBCHEM_OPENEYE_CAN_SMILES>
COCCOCCCCCC(=O)NCCCCC(C(=O)O)N

> <PUBCHEM_OPENEYE_ISO_SMILES>
COCCOCCCCCC(=O)NCCCC[C@@H](C(=O)O)N

> <PUBCHEM_CACTVS_TPSA>
111

> <PUBCHEM_MONOISOTOPIC_WEIGHT>
318.21547206

> <PUBCHEM_TOTAL_CHARGE>
0

> <PUBCHEM_HEAVY_ATOM_COUNT>
22

> <PUBCHEM_ATOM_DEF_STEREO_COUNT>
1

> <PUBCHEM_ATOM_UDEF_STEREO_COUNT>
0

> <PUBCHEM_BOND_DEF_STEREO_COUNT>
0

> <PUBCHEM_BOND_UDEF_STEREO_COUNT>
0

> <PUBCHEM_ISOTOPIC_ATOM_COUNT>
0

> <PUBCHEM_COMPONENT_COUNT>
1

> <PUBCHEM_CACTVS_TAUTO_COUNT>
3

> <PUBCHEM_COORDINATE_TYPE>
1
5
255

> <PUBCHEM_BONDANNOTATIONS>
16  7  6

$$$$
