137321858
  -OEChem-12122309372D

 82 85  0     1  0  0  0  0  0999 V2000
    5.8985    0.0000    0.0000 Na  0  3  0  0  0  0  0  0  0  0  0  0
    6.1041    2.9599    0.0000 O   0  0  0  0  0  0  0  0  0  0  0  0
    0.4934    8.5300    0.0000 O   0  0  0  0  0  0  0  0  0  0  0  0
    1.5422    9.9085    0.0000 O   0  0  0  0  0  0  0  0  0  0  0  0
    6.0511   14.0060    0.0000 O   0  0  0  0  0  0  0  0  0  0  0  0
    4.6561   12.9794    0.0000 O   0  0  0  0  0  0  0  0  0  0  0  0
    5.4650    7.5915    0.0000 N   0  0  0  0  0  0  0  0  0  0  0  0
    8.4702    7.5915    0.0000 N   0  0  0  0  0  0  0  0  0  0  0  0
    6.9349    8.9610    0.0000 N   0  0  0  0  0  0  0  0  0  0  0  0
    6.9684    6.2220    0.0000 N   0  0  0  0  0  0  0  0  0  0  0  0
    3.9297    8.0921    0.0000 C   0  0  0  0  0  0  0  0  0  0  0  0
    4.8974    8.3600    0.0000 C   0  0  0  0  0  0  0  0  0  0  0  0
    3.9297    7.0909    0.0000 C   0  0  0  0  0  0  0  0  0  0  0  0
    4.8974    6.8230    0.0000 C   0  0  0  0  0  0  0  0  0  0  0  0
   10.0071    7.1244    0.0000 C   0  0  0  0  0  0  0  0  0  0  0  0
    6.4344   10.5632    0.0000 C   0  0  0  0  0  0  0  0  0  0  0  0
    9.0712    6.8565    0.0000 C   0  0  0  0  0  0  0  0  0  0  0  0
    9.0377    8.3935    0.0000 C   0  0  0  0  0  0  0  0  0  0  0  0
    6.4678    4.6533    0.0000 C   0  0  0  0  0  0  0  0  0  0  0  0
   10.0071    8.1256    0.0000 C   0  0  0  0  0  0  0  0  0  0  0  0
    6.1330    9.5955    0.0000 C   0  0  0  0  0  0  0  0  0  0  0  0
    3.1339    8.6976    0.0000 C   0  0  0  0  0  0  0  0  0  0  0  0
    6.1665    5.5875    0.0000 C   0  0  0  0  0  0  0  0  0  0  0  0
    7.4355   10.5632    0.0000 C   0  0  0  0  0  0  0  0  0  0  0  0
    7.4690    4.6533    0.0000 C   0  0  0  0  0  0  0  0  0  0  0  0
    7.7704    9.6290    0.0000 C   0  0  0  0  0  0  0  0  0  0  0  0
    5.1653    9.3277    0.0000 C   0  0  0  0  0  0  0  0  0  0  0  0
    7.7704    5.6210    0.0000 C   0  0  0  0  0  0  0  0  0  0  0  0
    5.1988    5.8888    0.0000 C   0  0  0  0  0  0  0  0  0  0  0  0
    8.7715    5.8888    0.0000 C   0  0  0  0  0  0  0  0  0  0  0  0
    8.7380    9.3277    0.0000 C   0  0  0  0  0  0  0  0  0  0  0  0
    5.8416   11.3686    0.0000 C   0  0  0  0  0  0  0  0  0  0  0  0
    5.7971    3.9116    0.0000 C   0  0  3  0  0  0  0  0  0  0  0  0
   10.8056    6.5224    0.0000 C   0  0  0  0  0  0  0  0  0  0  0  0
    3.0637    6.5909    0.0000 C   0  0  0  0  0  0  0  0  0  0  0  0
    2.2116    8.3111    0.0000 C   0  0  0  0  0  0  0  0  0  0  0  0
   10.8028    8.7312    0.0000 C   0  0  0  0  0  0  0  0  0  0  0  0
    8.0111   11.3810    0.0000 C   0  0  0  0  0  0  0  0  0  0  0  0
    8.0618    3.8479    0.0000 C   0  0  0  0  0  0  0  0  0  0  0  0
    6.2427   12.2846    0.0000 C   0  0  0  0  0  0  0  0  0  0  0  0
    4.8194    4.1216    0.0000 C   0  0  0  0  0  0  0  0  0  0  0  0
   11.7262    6.9129    0.0000 C   0  0  0  0  0  0  0  0  0  0  0  0
    1.4157    8.9166    0.0000 C   0  0  0  0  0  0  0  0  0  0  0  0
    5.6499   13.0900    0.0000 C   0  0  0  0  0  0  0  0  0  0  0  0
    6.0850    7.5915    0.0000 H   0  0  0  0  0  0  0  0  0  0  0  0
    3.5892    9.1183    0.0000 H   0  0  0  0  0  0  0  0  0  0  0  0
    2.7986    9.2191    0.0000 H   0  0  0  0  0  0  0  0  0  0  0  0
    4.7269    9.7661    0.0000 H   0  0  0  0  0  0  0  0  0  0  0  0
    4.7626    5.4482    0.0000 H   0  0  0  0  0  0  0  0  0  0  0  0
    7.8506    7.5700    0.0000 H   0  0  0  0  0  0  0  0  0  0  0  0
    9.2013    5.4420    0.0000 H   0  0  0  0  0  0  0  0  0  0  0  0
    9.1746    9.7679    0.0000 H   0  0  0  0  0  0  0  0  0  0  0  0
    5.3255   11.7121    0.0000 H   0  0  0  0  0  0  0  0  0  0  0  0
    5.4137   10.9200    0.0000 H   0  0  0  0  0  0  0  0  0  0  0  0
    6.4033    3.7814    0.0000 H   0  0  0  0  0  0  0  0  0  0  0  0
   10.3520    6.0997    0.0000 H   0  0  0  0  0  0  0  0  0  0  0  0
   11.1431    6.0024    0.0000 H   0  0  0  0  0  0  0  0  0  0  0  0
    2.7537    7.1278    0.0000 H   0  0  0  0  0  0  0  0  0  0  0  0
    2.5268    6.2809    0.0000 H   0  0  0  0  0  0  0  0  0  0  0  0
    3.3737    6.0540    0.0000 H   0  0  0  0  0  0  0  0  0  0  0  0
    1.7562    7.8903    0.0000 H   0  0  0  0  0  0  0  0  0  0  0  0
    2.5469    7.7896    0.0000 H   0  0  0  0  0  0  0  0  0  0  0  0
   11.1783    8.2379    0.0000 H   0  0  0  0  0  0  0  0  0  0  0  0
   11.2962    9.1068    0.0000 H   0  0  0  0  0  0  0  0  0  0  0  0
   10.4273    9.2246    0.0000 H   0  0  0  0  0  0  0  0  0  0  0  0
    8.5181   11.0241    0.0000 H   0  0  0  0  0  0  0  0  0  0  0  0
    8.3680   11.8880    0.0000 H   0  0  0  0  0  0  0  0  0  0  0  0
    7.5041   11.7378    0.0000 H   0  0  0  0  0  0  0  0  0  0  0  0
    7.5624    3.4804    0.0000 H   0  0  0  0  0  0  0  0  0  0  0  0
    8.4293    3.3486    0.0000 H   0  0  0  0  0  0  0  0  0  0  0  0
    8.5611    4.2154    0.0000 H   0  0  0  0  0  0  0  0  0  0  0  0
    6.7588   11.9411    0.0000 H   0  0  0  0  0  0  0  0  0  0  0  0
    6.6706   12.7333    0.0000 H   0  0  0  0  0  0  0  0  0  0  0  0
    4.9496    4.7278    0.0000 H   0  0  0  0  0  0  0  0  0  0  0  0
    4.2132    4.2518    0.0000 H   0  0  0  0  0  0  0  0  0  0  0  0
    4.6892    3.5154    0.0000 H   0  0  0  0  0  0  0  0  0  0  0  0
   11.9683    6.3422    0.0000 H   0  0  0  0  0  0  0  0  0  0  0  0
   12.2970    7.1550    0.0000 H   0  0  0  0  0  0  0  0  0  0  0  0
   11.4841    7.4837    0.0000 H   0  0  0  0  0  0  0  0  0  0  0  0
    5.6882    2.5000    0.0000 H   0  0  0  0  0  0  0  0  0  0  0  0
    0.0000    8.9054    0.0000 H   0  0  0  0  0  0  0  0  0  0  0  0
    5.6836   14.5054    0.0000 H   0  0  0  0  0  0  0  0  0  0  0  0
  2 33  1  0  0  0  0
  2 80  1  0  0  0  0
  3 43  1  0  0  0  0
  3 81  1  0  0  0  0
  4 43  2  0  0  0  0
  5 44  1  0  0  0  0
  5 82  1  0  0  0  0
  6 44  2  0  0  0  0
  7 12  1  0  0  0  0
  7 14  1  0  0  0  0
  7 45  1  0  0  0  0
  8 17  1  0  0  0  0
  8 18  1  0  0  0  0
  8 50  1  0  0  0  0
  9 21  1  0  0  0  0
  9 26  2  0  0  0  0
 10 23  1  0  0  0  0
 10 28  2  0  0  0  0
 11 12  2  0  0  0  0
 11 13  1  0  0  0  0
 11 22  1  0  0  0  0
 12 27  1  0  0  0  0
 13 14  2  0  0  0  0
 13 35  1  0  0  0  0
 14 29  1  0  0  0  0
 15 17  1  0  0  0  0
 15 20  2  0  0  0  0
 15 34  1  0  0  0  0
 16 21  1  0  0  0  0
 16 24  2  0  0  0  0
 16 32  1  0  0  0  0
 17 30  2  0  0  0  0
 18 20  1  0  0  0  0
 18 31  2  0  0  0  0
 19 23  1  0  0  0  0
 19 25  2  0  0  0  0
 19 33  1  0  0  0  0
 20 37  1  0  0  0  0
 21 27  2  0  0  0  0
 22 36  1  0  0  0  0
 22 46  1  0  0  0  0
 22 47  1  0  0  0  0
 23 29  2  0  0  0  0
 24 26  1  0  0  0  0
 24 38  1  0  0  0  0
 25 28  1  0  0  0  0
 25 39  1  0  0  0  0
 26 31  1  0  0  0  0
 27 48  1  0  0  0  0
 28 30  1  0  0  0  0
 29 49  1  0  0  0  0
 30 51  1  0  0  0  0
 31 52  1  0  0  0  0
 32 40  1  0  0  0  0
 32 53  1  0  0  0  0
 32 54  1  0  0  0  0
 33 41  1  0  0  0  0
 33 55  1  0  0  0  0
 34 42  1  0  0  0  0
 34 56  1  0  0  0  0
 34 57  1  0  0  0  0
 35 58  1  0  0  0  0
 35 59  1  0  0  0  0
 35 60  1  0  0  0  0
 36 43  1  0  0  0  0
 36 61  1  0  0  0  0
 36 62  1  0  0  0  0
 37 63  1  0  0  0  0
 37 64  1  0  0  0  0
 37 65  1  0  0  0  0
 38 66  1  0  0  0  0
 38 67  1  0  0  0  0
 38 68  1  0  0  0  0
 39 69  1  0  0  0  0
 39 70  1  0  0  0  0
 39 71  1  0  0  0  0
 40 44  1  0  0  0  0
 40 72  1  0  0  0  0
 40 73  1  0  0  0  0
 41 74  1  0  0  0  0
 41 75  1  0  0  0  0
 41 76  1  0  0  0  0
 42 77  1  0  0  0  0
 42 78  1  0  0  0  0
 42 79  1  0  0  0  0
M  CHG  1   1   1
M  END
> <PUBCHEM_COMPOUND_CID>
137321858

> <PUBCHEM_COMPOUND_CANONICALIZED>
1

> <PUBCHEM_CACTVS_COMPLEXITY>
982

> <PUBCHEM_CACTVS_HBOND_ACCEPTOR>
7

> <PUBCHEM_CACTVS_HBOND_DONOR>
5

> <PUBCHEM_CACTVS_ROTATABLE_BOND>
8

> <PUBCHEM_CACTVS_SUBSKEYS>
AAADcfB/uCAAAAAAAAAAAAAAAAAAAWLFiwAAAAAAAAAAAAAB/gAAHgAQCAAADByhngIyyLLJkgCoAyTyTACCgCAhAiAAmSEwbJgINnLA0NGEdAhm0AHI2Ae42fOegAAAAAAAAAAAAAAAAAAAAAAAAAAAAA==

> <PUBCHEM_IUPAC_OPENEYE_NAME>
sodium;3-[18-(2-carboxyethyl)-12-ethyl-7-(1-hydroxyethyl)-3,8,13,17-tetramethyl-21,23-dihydroporphyrin-2-yl]propanoic acid

> <PUBCHEM_IUPAC_CAS_NAME>
sodium;3-[18-(2-carboxyethyl)-12-ethyl-7-(1-hydroxyethyl)-3,8,13,17-tetramethyl-21,23-dihydroporphyrin-2-yl]propanoic acid

> <PUBCHEM_IUPAC_NAME_MARKUP>
sodium;3-[18-(2-carboxyethyl)-12-ethyl-7-(1-hydroxyethyl)-3,8,13,17-tetramethyl-21,23-dihydroporphyrin-2-yl]propanoic acid

> <PUBCHEM_IUPAC_NAME>
sodium;3-[18-(2-carboxyethyl)-12-ethyl-7-(1-hydroxyethyl)-3,8,13,17-tetramethyl-21,23-dihydroporphyrin-2-yl]propanoic acid

> <PUBCHEM_IUPAC_SYSTEMATIC_NAME>
sodium;3-[12-ethyl-7-(1-hydroxyethyl)-18-(3-hydroxy-3-oxopropyl)-3,8,13,17-tetramethyl-21,23-dihydroporphyrin-2-yl]propanoic acid

> <PUBCHEM_IUPAC_TRADITIONAL_NAME>
sodium;3-[18-(2-carboxyethyl)-12-ethyl-7-(1-hydroxyethyl)-3,8,13,17-tetramethyl-21,23-dihydroporphin-2-yl]propionic acid

> <PUBCHEM_IUPAC_INCHI>
InChI=1S/C34H38N4O5.Na/c1-7-21-16(2)24-12-25-17(3)22(8-10-32(40)41)29(36-25)15-30-23(9-11-33(42)43)18(4)26(37-30)14-31-34(20(6)39)19(5)27(38-31)13-28(21)35-24;/h12-15,20,35,37,39H,7-11H2,1-6H3,(H,40,41)(H,42,43);/q;+1

> <PUBCHEM_IUPAC_INCHIKEY>
RSQDGTJKZWTAGL-UHFFFAOYSA-N

> <PUBCHEM_EXACT_MASS>
605.27398961

> <PUBCHEM_MOLECULAR_FORMULA>
C34H38N4NaO5+

> <PUBCHEM_MOLECULAR_WEIGHT>
605.7

> <PUBCHEM_OPENEYE_CAN_SMILES>
CCC1=C(C2=CC3=NC(=CC4=C(C(=C(N4)C=C5C(=C(C(=N5)C=C1N2)C)C(C)O)C)CCC(=O)O)C(=C3C)CCC(=O)O)C.[Na+]

> <PUBCHEM_OPENEYE_ISO_SMILES>
CCC1=C(C2=CC3=NC(=CC4=C(C(=C(N4)C=C5C(=C(C(=N5)C=C1N2)C)C(C)O)C)CCC(=O)O)C(=C3C)CCC(=O)O)C.[Na+]

> <PUBCHEM_CACTVS_TPSA>
152

> <PUBCHEM_MONOISOTOPIC_WEIGHT>
605.27398961

> <PUBCHEM_TOTAL_CHARGE>
1

> <PUBCHEM_HEAVY_ATOM_COUNT>
44

> <PUBCHEM_ATOM_DEF_STEREO_COUNT>
0

> <PUBCHEM_ATOM_UDEF_STEREO_COUNT>
1

> <PUBCHEM_BOND_DEF_STEREO_COUNT>
0

> <PUBCHEM_BOND_UDEF_STEREO_COUNT>
0

> <PUBCHEM_ISOTOPIC_ATOM_COUNT>
0

> <PUBCHEM_COMPONENT_COUNT>
2

> <PUBCHEM_CACTVS_TAUTO_COUNT>
-1

> <PUBCHEM_COORDINATE_TYPE>
1
5
255

> <PUBCHEM_BONDANNOTATIONS>
10  23  8
10  28  8
11  12  8
11  13  8
12  27  8
13  14  8
14  29  8
15  17  8
15  20  8
17  30  8
18  20  8
18  31  8
33  2  3
21  27  8
23  29  8
26  31  8
28  30  8
7  12  8
7  14  8
8  17  8
8  18  8
9  21  8
9  26  8

$$$$
