86278357
  -OEChem-12122308262D

 75 74  0     1  0  0  0  0  0999 V2000
    8.9282    3.4050    0.0000 O   0  0  0  0  0  0  0  0  0  0  0  0
   10.6603    4.4050    0.0000 O   0  0  0  0  0  0  0  0  0  0  0  0
    7.1962    4.4050    0.0000 O   0  0  0  0  0  0  0  0  0  0  0  0
    8.0622   -0.0950    0.0000 O   0  0  0  0  0  0  0  0  0  0  0  0
    3.7320   -5.5950    0.0000 O   0  0  0  0  0  0  0  0  0  0  0  0
    2.8660   -4.0950    0.0000 O   0  0  0  0  0  0  0  0  0  0  0  0
   11.5263    5.9050    0.0000 O   0  0  0  0  0  0  0  0  0  0  0  0
    6.3301    5.9050    0.0000 O   0  0  0  0  0  0  0  0  0  0  0  0
   14.9904    4.9050    0.0000 O   0  0  0  0  0  0  0  0  0  0  0  0
    2.8660    4.9050    0.0000 O   0  0  0  0  0  0  0  0  0  0  0  0
    6.3301   -0.0950    0.0000 N   0  0  0  0  0  0  0  0  0  0  0  0
    5.4641   -4.5950    0.0000 N   0  0  0  0  0  0  0  0  0  0  0  0
   12.3923    4.4050    0.0000 N   0  0  0  0  0  0  0  0  0  0  0  0
    5.4641    4.4050    0.0000 N   0  0  0  0  0  0  0  0  0  0  0  0
    5.4641   -2.5950    0.0000 C   0  0  0  0  0  0  0  0  0  0  0  0
    5.4641   -1.5950    0.0000 C   0  0  0  0  0  0  0  0  0  0  0  0
    4.5981   -3.0950    0.0000 C   0  0  0  0  0  0  0  0  0  0  0  0
    6.3301   -1.0950    0.0000 C   0  0  0  0  0  0  0  0  0  0  0  0
    4.5981   -4.0950    0.0000 C   0  0  1  0  0  0  0  0  0  0  0  0
    8.0622    1.9050    0.0000 C   0  0  0  0  0  0  0  0  0  0  0  0
    7.1962    1.4050    0.0000 C   0  0  0  0  0  0  0  0  0  0  0  0
    8.9282    4.4050    0.0000 C   0  0  0  0  0  0  0  0  0  0  0  0
    8.0622    2.9050    0.0000 C   0  0  0  0  0  0  0  0  0  0  0  0
    7.1962    0.4050    0.0000 C   0  0  0  0  0  0  0  0  0  0  0  0
    9.7942    4.9050    0.0000 C   0  0  0  0  0  0  0  0  0  0  0  0
    8.0622    4.9050    0.0000 C   0  0  0  0  0  0  0  0  0  0  0  0
    3.7320   -4.5950    0.0000 C   0  0  0  0  0  0  0  0  0  0  0  0
   11.5263    4.9050    0.0000 C   0  0  0  0  0  0  0  0  0  0  0  0
    6.3301    4.9050    0.0000 C   0  0  0  0  0  0  0  0  0  0  0  0
   13.2583    4.9050    0.0000 C   0  0  0  0  0  0  0  0  0  0  0  0
    4.5981    4.9050    0.0000 C   0  0  0  0  0  0  0  0  0  0  0  0
   14.1244    4.4050    0.0000 C   0  0  0  0  0  0  0  0  0  0  0  0
    3.7320    4.4050    0.0000 C   0  0  0  0  0  0  0  0  0  0  0  0
   15.8564    4.4050    0.0000 C   0  0  0  0  0  0  0  0  0  0  0  0
    2.0000    4.4050    0.0000 C   0  0  0  0  0  0  0  0  0  0  0  0
    5.6762   -3.1776    0.0000 H   0  0  0  0  0  0  0  0  0  0  0  0
    6.0747   -2.4873    0.0000 H   0  0  0  0  0  0  0  0  0  0  0  0
    5.2520   -1.0124    0.0000 H   0  0  0  0  0  0  0  0  0  0  0  0
    4.8535   -1.7027    0.0000 H   0  0  0  0  0  0  0  0  0  0  0  0
    4.3860   -2.5124    0.0000 H   0  0  0  0  0  0  0  0  0  0  0  0
    3.9875   -3.2027    0.0000 H   0  0  0  0  0  0  0  0  0  0  0  0
    6.5422   -1.6776    0.0000 H   0  0  0  0  0  0  0  0  0  0  0  0
    6.9407   -0.9873    0.0000 H   0  0  0  0  0  0  0  0  0  0  0  0
    4.5981   -4.7150    0.0000 H   0  0  0  0  0  0  0  0  0  0  0  0
    8.2742    1.3224    0.0000 H   0  0  0  0  0  0  0  0  0  0  0  0
    8.6728    2.0127    0.0000 H   0  0  0  0  0  0  0  0  0  0  0  0
    6.9841    1.9876    0.0000 H   0  0  0  0  0  0  0  0  0  0  0  0
    6.5856    1.2973    0.0000 H   0  0  0  0  0  0  0  0  0  0  0  0
    9.4651    4.0950    0.0000 H   0  0  0  0  0  0  0  0  0  0  0  0
    5.7932    0.2150    0.0000 H   0  0  0  0  0  0  0  0  0  0  0  0
    7.8501    3.4876    0.0000 H   0  0  0  0  0  0  0  0  0  0  0  0
    7.4516    2.7973    0.0000 H   0  0  0  0  0  0  0  0  0  0  0  0
   10.1928    5.3800    0.0000 H   0  0  0  0  0  0  0  0  0  0  0  0
    9.3957    5.3800    0.0000 H   0  0  0  0  0  0  0  0  0  0  0  0
    8.4607    5.3800    0.0000 H   0  0  0  0  0  0  0  0  0  0  0  0
    7.6636    5.3800    0.0000 H   0  0  0  0  0  0  0  0  0  0  0  0
    5.4641   -5.2150    0.0000 H   0  0  0  0  0  0  0  0  0  0  0  0
    6.0010   -4.2850    0.0000 H   0  0  0  0  0  0  0  0  0  0  0  0
    3.1951   -5.9050    0.0000 H   0  0  0  0  0  0  0  0  0  0  0  0
   12.3923    3.7850    0.0000 H   0  0  0  0  0  0  0  0  0  0  0  0
    5.4641    3.7850    0.0000 H   0  0  0  0  0  0  0  0  0  0  0  0
   13.6569    5.3800    0.0000 H   0  0  0  0  0  0  0  0  0  0  0  0
   12.8598    5.3800    0.0000 H   0  0  0  0  0  0  0  0  0  0  0  0
    4.9966    5.3800    0.0000 H   0  0  0  0  0  0  0  0  0  0  0  0
    4.1996    5.3800    0.0000 H   0  0  0  0  0  0  0  0  0  0  0  0
   13.7258    3.9300    0.0000 H   0  0  0  0  0  0  0  0  0  0  0  0
   14.5229    3.9300    0.0000 H   0  0  0  0  0  0  0  0  0  0  0  0
    3.3335    3.9300    0.0000 H   0  0  0  0  0  0  0  0  0  0  0  0
    4.1306    3.9300    0.0000 H   0  0  0  0  0  0  0  0  0  0  0  0
   15.5464    3.8681    0.0000 H   0  0  0  0  0  0  0  0  0  0  0  0
   16.3933    4.0950    0.0000 H   0  0  0  0  0  0  0  0  0  0  0  0
   16.1664    4.9419    0.0000 H   0  0  0  0  0  0  0  0  0  0  0  0
    1.6900    4.9419    0.0000 H   0  0  0  0  0  0  0  0  0  0  0  0
    1.4631    4.0950    0.0000 H   0  0  0  0  0  0  0  0  0  0  0  0
    2.3100    3.8681    0.0000 H   0  0  0  0  0  0  0  0  0  0  0  0
  1 22  1  0  0  0  0
  1 23  1  0  0  0  0
  2 25  1  0  0  0  0
  2 28  1  0  0  0  0
  3 26  1  0  0  0  0
  3 29  1  0  0  0  0
  4 24  2  0  0  0  0
  5 27  1  0  0  0  0
  5 59  1  0  0  0  0
  6 27  2  0  0  0  0
  7 28  2  0  0  0  0
  8 29  2  0  0  0  0
  9 32  1  0  0  0  0
  9 34  1  0  0  0  0
 10 33  1  0  0  0  0
 10 35  1  0  0  0  0
 11 18  1  0  0  0  0
 11 24  1  0  0  0  0
 11 50  1  0  0  0  0
 19 12  1  6  0  0  0
 12 57  1  0  0  0  0
 12 58  1  0  0  0  0
 13 28  1  0  0  0  0
 13 30  1  0  0  0  0
 13 60  1  0  0  0  0
 14 29  1  0  0  0  0
 14 31  1  0  0  0  0
 14 61  1  0  0  0  0
 15 16  1  0  0  0  0
 15 17  1  0  0  0  0
 15 36  1  0  0  0  0
 15 37  1  0  0  0  0
 16 18  1  0  0  0  0
 16 38  1  0  0  0  0
 16 39  1  0  0  0  0
 17 19  1  0  0  0  0
 17 40  1  0  0  0  0
 17 41  1  0  0  0  0
 18 42  1  0  0  0  0
 18 43  1  0  0  0  0
 19 27  1  0  0  0  0
 19 44  1  0  0  0  0
 20 21  1  0  0  0  0
 20 23  1  0  0  0  0
 20 45  1  0  0  0  0
 20 46  1  0  0  0  0
 21 24  1  0  0  0  0
 21 47  1  0  0  0  0
 21 48  1  0  0  0  0
 22 25  1  0  0  0  0
 22 26  1  0  0  0  0
 22 49  1  0  0  0  0
 23 51  1  0  0  0  0
 23 52  1  0  0  0  0
 25 53  1  0  0  0  0
 25 54  1  0  0  0  0
 26 55  1  0  0  0  0
 26 56  1  0  0  0  0
 30 32  1  0  0  0  0
 30 62  1  0  0  0  0
 30 63  1  0  0  0  0
 31 33  1  0  0  0  0
 31 64  1  0  0  0  0
 31 65  1  0  0  0  0
 32 66  1  0  0  0  0
 32 67  1  0  0  0  0
 33 68  1  0  0  0  0
 33 69  1  0  0  0  0
 34 70  1  0  0  0  0
 34 71  1  0  0  0  0
 34 72  1  0  0  0  0
 35 73  1  0  0  0  0
 35 74  1  0  0  0  0
 35 75  1  0  0  0  0
M  END
> <PUBCHEM_COMPOUND_CID>
86278357

> <PUBCHEM_COMPOUND_CANONICALIZED>
1

> <PUBCHEM_CACTVS_COMPLEXITY>
583

> <PUBCHEM_CACTVS_HBOND_ACCEPTOR>
11

> <PUBCHEM_CACTVS_HBOND_DONOR>
5

> <PUBCHEM_CACTVS_ROTATABLE_BOND>
23

> <PUBCHEM_CACTVS_SUBSKEYS>
AAADcfB7vAAAAAAAAAAAAAAAAAAAAAAAAAAAAAAAAAAAAAAAAAAAHgAQCAAACDzhgAYCCALABgAIAAGQGAAAAAAAAAAAAIGIAAEDABIAgAAPQAAFFgCSAAG6SAAAAAAAAAAAAAAAAAAAAAAAAAAAAAAAAA==

> <PUBCHEM_IUPAC_OPENEYE_NAME>
(2S)-2-amino-6-[4-[2-(2-methoxyethylcarbamoyloxy)-1-(2-methoxyethylcarbamoyloxymethyl)ethoxy]butanoylamino]hexanoic acid

> <PUBCHEM_IUPAC_CAS_NAME>
(2S)-2-amino-6-[[4-[1,3-bis[(2-methoxyethylamino)-oxomethoxy]propan-2-yloxy]-1-oxobutyl]amino]hexanoic acid

> <PUBCHEM_IUPAC_NAME_MARKUP>
(2<I>S</I>)-2-amino-6-[4-[1,3-bis(2-methoxyethylcarbamoyloxy)propan-2-yloxy]butanoylamino]hexanoic acid

> <PUBCHEM_IUPAC_NAME>
(2S)-2-amino-6-[4-[1,3-bis(2-methoxyethylcarbamoyloxy)propan-2-yloxy]butanoylamino]hexanoic acid

> <PUBCHEM_IUPAC_SYSTEMATIC_NAME>
(2S)-2-azanyl-6-[4-[1,3-bis(2-methoxyethylcarbamoyloxy)propan-2-yloxy]butanoylamino]hexanoic acid

> <PUBCHEM_IUPAC_TRADITIONAL_NAME>
(2S)-2-amino-6-[4-[2-(2-methoxyethylcarbamoyloxy)-1-(2-methoxyethylcarbamoyloxymethyl)ethoxy]butanoylamino]hexanoic acid

> <PUBCHEM_IUPAC_INCHI>
InChI=1S/C21H40N4O10/c1-31-12-9-24-20(29)34-14-16(15-35-21(30)25-10-13-32-2)33-11-5-7-18(26)23-8-4-3-6-17(22)19(27)28/h16-17H,3-15,22H2,1-2H3,(H,23,26)(H,24,29)(H,25,30)(H,27,28)/t17-/m0/s1

> <PUBCHEM_IUPAC_INCHIKEY>
ZBLUSEBPLQDKAE-KRWDZBQOSA-N

> <PUBCHEM_XLOGP3_AA>
-3.6

> <PUBCHEM_EXACT_MASS>
508.27444349

> <PUBCHEM_MOLECULAR_FORMULA>
C21H40N4O10

> <PUBCHEM_MOLECULAR_WEIGHT>
508.6

> <PUBCHEM_OPENEYE_CAN_SMILES>
COCCNC(=O)OCC(COC(=O)NCCOC)OCCCC(=O)NCCCCC(C(=O)O)N

> <PUBCHEM_OPENEYE_ISO_SMILES>
COCCNC(=O)OCC(COC(=O)NCCOC)OCCCC(=O)NCCCC[C@@H](C(=O)O)N

> <PUBCHEM_CACTVS_TPSA>
197

> <PUBCHEM_MONOISOTOPIC_WEIGHT>
508.27444349

> <PUBCHEM_TOTAL_CHARGE>
0

> <PUBCHEM_HEAVY_ATOM_COUNT>
35

> <PUBCHEM_ATOM_DEF_STEREO_COUNT>
1

> <PUBCHEM_ATOM_UDEF_STEREO_COUNT>
0

> <PUBCHEM_BOND_DEF_STEREO_COUNT>
0

> <PUBCHEM_BOND_UDEF_STEREO_COUNT>
0

> <PUBCHEM_ISOTOPIC_ATOM_COUNT>
0

> <PUBCHEM_COMPONENT_COUNT>
1

> <PUBCHEM_CACTVS_TAUTO_COUNT>
9

> <PUBCHEM_COORDINATE_TYPE>
1
5
255

> <PUBCHEM_BONDANNOTATIONS>
19  12  6

$$$$
