91668186
  -OEChem-12122309352D

217225  0     1  0  0  0  0  0999 V2000
    5.1350  -23.4192    0.0000 S   0  0  0  0  0  0  0  0  0  0  0  0
    3.6013  -16.3126    0.0000 O   0  0  0  0  0  0  0  0  0  0  0  0
    6.8951  -22.1404    0.0000 O   0  0  0  0  0  0  0  0  0  0  0  0
    4.0472  -20.0713    0.0000 O   0  0  0  0  0  0  0  0  0  0  0  0
   21.6332   22.5653    0.0000 O   0  0  0  0  0  0  0  0  0  0  0  0
    2.5369  -24.9192    0.0000 O   0  0  0  0  0  0  0  0  0  0  0  0
   23.1852   20.6533    0.0000 O   0  0  0  0  0  0  0  0  0  0  0  0
    3.4030  -26.4192    0.0000 O   0  0  0  0  0  0  0  0  0  0  0  0
   23.2326   25.1611    0.0000 O   0  0  0  0  0  0  0  0  0  0  0  0
    6.7307   -9.8467    0.0000 O   0  0  0  0  0  0  0  0  0  0  0  0
   21.2013   21.3225    0.0000 O   0  0  0  0  0  0  0  0  0  0  0  0
   22.3192   19.1533    0.0000 O   0  0  0  0  0  0  0  0  0  0  0  0
   30.8511   24.6131    0.0000 O   0  0  0  0  0  0  0  0  0  0  0  0
   21.3343   19.9796    0.0000 O   0  0  0  0  0  0  0  0  0  0  0  0
    8.4628   -7.8467    0.0000 O   0  0  0  0  0  0  0  0  0  0  0  0
    9.3288   -5.3467    0.0000 O   0  0  0  0  0  0  0  0  0  0  0  0
   19.7211   14.6533    0.0000 O   0  0  0  0  0  0  0  0  0  0  0  0
   11.0608   -3.3467    0.0000 O   0  0  0  0  0  0  0  0  0  0  0  0
   20.5871   11.1533    0.0000 O   0  0  0  0  0  0  0  0  0  0  0  0
   18.8551   10.1533    0.0000 O   0  0  0  0  0  0  0  0  0  0  0  0
   11.9269   -0.8467    0.0000 O   0  0  0  0  0  0  0  0  0  0  0  0
   18.8551    8.1533    0.0000 O   0  0  0  0  0  0  0  0  0  0  0  0
   16.2570    5.6533    0.0000 O   0  0  0  0  0  0  0  0  0  0  0  0
   13.6589    1.1533    0.0000 O   0  0  0  0  0  0  0  0  0  0  0  0
   14.5249    3.6533    0.0000 O   0  0  0  0  0  0  0  0  0  0  0  0
    5.6350  -20.8803    0.0000 N   0  0  0  0  0  0  0  0  0  0  0  0
    5.1836  -15.6081    0.0000 N   0  0  0  0  0  0  0  0  0  0  0  0
    6.3647  -13.8856    0.0000 N   0  0  0  0  0  0  0  0  0  0  0  0
    5.8647  -12.3467    0.0000 N   0  0  0  0  0  0  0  0  0  0  0  0
    5.1350  -25.4192    0.0000 N   0  0  0  0  0  0  0  0  0  0  0  0
   24.7225   24.2777    0.0000 N   0  0  0  0  0  0  0  0  0  0  0  0
    6.6737  -12.9345    0.0000 N   0  0  0  0  0  0  0  0  0  0  0  0
   27.0081   22.9736    0.0000 N   0  0  0  0  0  0  0  0  0  0  0  0
   21.4531   14.6533    0.0000 N   0  0  0  0  0  0  0  0  0  0  0  0
   19.7211   12.6533    0.0000 N   0  0  0  0  0  0  0  0  0  0  0  0
   24.9172   12.6533    0.0000 N   0  0  0  0  0  0  0  0  0  0  0  0
   17.1230    8.1533    0.0000 N   0  0  0  0  0  0  0  0  0  0  0  0
    5.8161  -19.1578    0.0000 C   0  0  0  0  0  0  0  0  0  0  0  0
    6.4038  -18.3488    0.0000 C   0  0  0  0  0  0  0  0  0  0  0  0
    4.8215  -19.0532    0.0000 C   0  0  0  0  0  0  0  0  0  0  0  0
    5.0026  -17.3307    0.0000 C   0  0  0  0  0  0  0  0  0  0  0  0
    5.9971  -17.4352    0.0000 C   0  0  0  0  0  0  0  0  0  0  0  0
    4.4148  -18.1397    0.0000 C   0  0  0  0  0  0  0  0  0  0  0  0
    6.2228  -20.0713    0.0000 C   0  0  0  0  0  0  0  0  0  0  0  0
    4.5959  -16.4171    0.0000 C   0  0  0  0  0  0  0  0  0  0  0  0
    5.9440  -21.8314    0.0000 C   0  0  0  0  0  0  0  0  0  0  0  0
    4.6350  -20.8803    0.0000 C   0  0  0  0  0  0  0  0  0  0  0  0
    5.1350  -22.4192    0.0000 C   0  0  3  0  0  0  0  0  0  0  0  0
    4.3260  -21.8314    0.0000 C   0  0  0  0  0  0  0  0  0  0  0  0
    4.7769  -14.6946    0.0000 C   0  0  0  0  0  0  0  0  0  0  0  0
    4.2690  -23.9192    0.0000 C   0  0  0  0  0  0  0  0  0  0  0  0
    5.3647  -13.8856    0.0000 C   0  0  0  0  0  0  0  0  0  0  0  0
    4.2690  -24.9192    0.0000 C   0  0  1  0  0  0  0  0  0  0  0  0
    5.0557  -12.9345    0.0000 C   0  0  0  0  0  0  0  0  0  0  0  0
    3.4030  -25.4192    0.0000 C   0  0  0  0  0  0  0  0  0  0  0  0
   23.1852   21.6533    0.0000 C   0  0  2  0  0  0  0  0  0  0  0  0
   23.7025   22.5574    0.0000 C   0  0  0  0  0  0  0  0  0  0  0  0
   25.2124   23.4060    0.0000 C   0  0  0  0  0  0  0  0  0  0  0  0
   25.3980   25.0070    0.0000 C   0  0  0  0  0  0  0  0  0  0  0  0
   26.3011   24.5914    0.0000 C   0  0  0  0  0  0  0  0  0  0  0  0
   23.2126   23.4291    0.0000 C   0  0  0  0  0  0  0  0  0  0  0  0
   26.1866   23.6039    0.0000 C   0  0  0  0  0  0  0  0  0  0  0  0
    5.8647  -11.3467    0.0000 C   0  0  0  0  0  0  0  0  0  0  0  0
   24.7024   22.5458    0.0000 C   0  0  0  0  0  0  0  0  0  0  0  0
   23.7225   24.2893    0.0000 C   0  0  0  0  0  0  0  0  0  0  0  0
   27.2450   25.0170    0.0000 C   0  0  0  0  0  0  0  0  0  0  0  0
   24.0512   21.1533    0.0000 C   0  0  0  0  0  0  0  0  0  0  0  0
   22.1713   23.4572    0.0000 C   0  0  0  0  0  0  0  0  0  0  0  0
   22.1436   21.6573    0.0000 C   0  0  0  0  0  0  0  0  0  0  0  0
   28.0809   24.4059    0.0000 C   0  0  0  0  0  0  0  0  0  0  0  0
    6.7307  -10.8467    0.0000 C   0  0  0  0  0  0  0  0  0  0  0  0
   27.3487   26.0116    0.0000 C   0  0  0  0  0  0  0  0  0  0  0  0
   27.9617   23.3773    0.0000 C   0  0  0  0  0  0  0  0  0  0  0  0
   24.0512   20.1533    0.0000 C   0  0  0  0  0  0  0  0  0  0  0  0
   29.0642   24.8492    0.0000 C   0  0  0  0  0  0  0  0  0  0  0  0
   28.2619   26.4192    0.0000 C   0  0  0  0  0  0  0  0  0  0  0  0
   28.8174   22.7208    0.0000 C   0  0  0  0  0  0  0  0  0  0  0  0
   29.9348   24.2127    0.0000 C   0  0  0  0  0  0  0  0  0  0  0  0
   22.3192   20.1533    0.0000 C   0  0  0  0  0  0  0  0  0  0  0  0
   29.8106   23.1413    0.0000 C   0  0  0  0  0  0  0  0  0  0  0  0
    7.5967   -9.3467    0.0000 C   0  0  0  0  0  0  0  0  0  0  0  0
    7.5967   -8.3467    0.0000 C   0  0  0  0  0  0  0  0  0  0  0  0
   21.4531   18.6533    0.0000 C   0  0  0  0  0  0  0  0  0  0  0  0
   21.4531   17.6533    0.0000 C   0  0  0  0  0  0  0  0  0  0  0  0
   22.3192   17.1533    0.0000 C   0  0  0  0  0  0  0  0  0  0  0  0
   20.5871   17.1533    0.0000 C   0  0  0  0  0  0  0  0  0  0  0  0
    8.4628   -6.8467    0.0000 C   0  0  0  0  0  0  0  0  0  0  0  0
   22.3192   16.1533    0.0000 C   0  0  0  0  0  0  0  0  0  0  0  0
   20.5871   16.1533    0.0000 C   0  0  0  0  0  0  0  0  0  0  0  0
   21.4531   15.6533    0.0000 C   0  0  0  0  0  0  0  0  0  0  0  0
    9.3288   -6.3467    0.0000 C   0  0  0  0  0  0  0  0  0  0  0  0
   20.5871   13.1533    0.0000 C   0  0  1  0  0  0  0  0  0  0  0  0
   21.4531   12.6533    0.0000 C   0  0  0  0  0  0  0  0  0  0  0  0
   20.5871   14.1533    0.0000 C   0  0  0  0  0  0  0  0  0  0  0  0
   22.3192   13.1533    0.0000 C   0  0  0  0  0  0  0  0  0  0  0  0
   23.1852   12.6533    0.0000 C   0  0  0  0  0  0  0  0  0  0  0  0
   10.1948   -4.8467    0.0000 C   0  0  0  0  0  0  0  0  0  0  0  0
   24.0512   13.1533    0.0000 C   0  0  0  0  0  0  0  0  0  0  0  0
   19.7211   11.6533    0.0000 C   0  0  0  0  0  0  0  0  0  0  0  0
   10.1948   -3.8467    0.0000 C   0  0  0  0  0  0  0  0  0  0  0  0
   18.8551   11.1533    0.0000 C   0  0  0  0  0  0  0  0  0  0  0  0
   11.0608   -2.3467    0.0000 C   0  0  0  0  0  0  0  0  0  0  0  0
   17.9890    9.6533    0.0000 C   0  0  0  0  0  0  0  0  0  0  0  0
   11.9269   -1.8467    0.0000 C   0  0  0  0  0  0  0  0  0  0  0  0
   17.9890    8.6533    0.0000 C   0  0  0  0  0  0  0  0  0  0  0  0
   17.1230    7.1533    0.0000 C   0  0  0  0  0  0  0  0  0  0  0  0
   16.2570    6.6533    0.0000 C   0  0  0  0  0  0  0  0  0  0  0  0
   12.7929   -0.3467    0.0000 C   0  0  0  0  0  0  0  0  0  0  0  0
   12.7929    0.6533    0.0000 C   0  0  0  0  0  0  0  0  0  0  0  0
   15.3910    5.1533    0.0000 C   0  0  0  0  0  0  0  0  0  0  0  0
   15.3910    4.1533    0.0000 C   0  0  0  0  0  0  0  0  0  0  0  0
   13.6589    2.1533    0.0000 C   0  0  0  0  0  0  0  0  0  0  0  0
   14.5249    2.6533    0.0000 C   0  0  0  0  0  0  0  0  0  0  0  0
    6.4327  -19.2226    0.0000 H   0  0  0  0  0  0  0  0  0  0  0  0
    6.8345  -18.7947    0.0000 H   0  0  0  0  0  0  0  0  0  0  0  0
    6.9178  -18.0021    0.0000 H   0  0  0  0  0  0  0  0  0  0  0  0
    4.2200  -19.2032    0.0000 H   0  0  0  0  0  0  0  0  0  0  0  0
    4.8648  -19.6717    0.0000 H   0  0  0  0  0  0  0  0  0  0  0  0
    4.3860  -17.2659    0.0000 H   0  0  0  0  0  0  0  0  0  0  0  0
    6.5987  -17.2852    0.0000 H   0  0  0  0  0  0  0  0  0  0  0  0
    5.9539  -16.8167    0.0000 H   0  0  0  0  0  0  0  0  0  0  0  0
    3.9841  -17.6937    0.0000 H   0  0  0  0  0  0  0  0  0  0  0  0
    3.9008  -18.4864    0.0000 H   0  0  0  0  0  0  0  0  0  0  0  0
    6.6535  -20.5173    0.0000 H   0  0  0  0  0  0  0  0  0  0  0  0
    6.7368  -19.7246    0.0000 H   0  0  0  0  0  0  0  0  0  0  0  0
    5.6874  -22.7006    0.0000 H   0  0  0  0  0  0  0  0  0  0  0  0
    3.7596  -21.5792    0.0000 H   0  0  0  0  0  0  0  0  0  0  0  0
    4.0160  -22.3683    0.0000 H   0  0  0  0  0  0  0  0  0  0  0  0
    5.8002  -15.6729    0.0000 H   0  0  0  0  0  0  0  0  0  0  0  0
    4.3462  -14.2486    0.0000 H   0  0  0  0  0  0  0  0  0  0  0  0
    4.2629  -15.0413    0.0000 H   0  0  0  0  0  0  0  0  0  0  0  0
    4.0569  -23.3366    0.0000 H   0  0  0  0  0  0  0  0  0  0  0  0
    3.6584  -24.0268    0.0000 H   0  0  0  0  0  0  0  0  0  0  0  0
    4.2690  -25.5392    0.0000 H   0  0  0  0  0  0  0  0  0  0  0  0
    4.4660  -12.7429    0.0000 H   0  0  0  0  0  0  0  0  0  0  0  0
    5.6720  -25.1092    0.0000 H   0  0  0  0  0  0  0  0  0  0  0  0
    5.1350  -26.0392    0.0000 H   0  0  0  0  0  0  0  0  0  0  0  0
   25.7150   25.5399    0.0000 H   0  0  0  0  0  0  0  0  0  0  0  0
   24.9014   25.3782    0.0000 H   0  0  0  0  0  0  0  0  0  0  0  0
    5.6526  -10.7641    0.0000 H   0  0  0  0  0  0  0  0  0  0  0  0
    5.2541  -11.4544    0.0000 H   0  0  0  0  0  0  0  0  0  0  0  0
   25.0062   22.0053    0.0000 H   0  0  0  0  0  0  0  0  0  0  0  0
   24.6618   21.0456    0.0000 H   0  0  0  0  0  0  0  0  0  0  0  0
   24.2633   21.7359    0.0000 H   0  0  0  0  0  0  0  0  0  0  0  0
   22.2938   24.0650    0.0000 H   0  0  0  0  0  0  0  0  0  0  0  0
   21.5935   23.6819    0.0000 H   0  0  0  0  0  0  0  0  0  0  0  0
   27.1982   26.6131    0.0000 H   0  0  0  0  0  0  0  0  0  0  0  0
   26.7302   25.9679    0.0000 H   0  0  0  0  0  0  0  0  0  0  0  0
    6.9428  -11.4293    0.0000 H   0  0  0  0  0  0  0  0  0  0  0  0
    7.3413  -10.7390    0.0000 H   0  0  0  0  0  0  0  0  0  0  0  0
    2.0000  -25.2292    0.0000 H   0  0  0  0  0  0  0  0  0  0  0  0
   23.4312   20.1533    0.0000 H   0  0  0  0  0  0  0  0  0  0  0  0
   24.0512   19.5333    0.0000 H   0  0  0  0  0  0  0  0  0  0  0  0
   24.6712   20.1533    0.0000 H   0  0  0  0  0  0  0  0  0  0  0  0
   29.1284   25.4659    0.0000 H   0  0  0  0  0  0  0  0  0  0  0  0
   28.5146   25.8530    0.0000 H   0  0  0  0  0  0  0  0  0  0  0  0
   28.8281   26.6718    0.0000 H   0  0  0  0  0  0  0  0  0  0  0  0
   28.0092   26.9854    0.0000 H   0  0  0  0  0  0  0  0  0  0  0  0
   28.7389   22.1058    0.0000 H   0  0  0  0  0  0  0  0  0  0  0  0
   30.3069   22.7696    0.0000 H   0  0  0  0  0  0  0  0  0  0  0  0
    7.8088   -9.9293    0.0000 H   0  0  0  0  0  0  0  0  0  0  0  0
    8.2073   -9.2390    0.0000 H   0  0  0  0  0  0  0  0  0  0  0  0
   31.3502   24.2453    0.0000 H   0  0  0  0  0  0  0  0  0  0  0  0
    7.3847   -7.7641    0.0000 H   0  0  0  0  0  0  0  0  0  0  0  0
    6.9862   -8.4544    0.0000 H   0  0  0  0  0  0  0  0  0  0  0  0
   21.2411   19.2359    0.0000 H   0  0  0  0  0  0  0  0  0  0  0  0
   20.8426   18.5456    0.0000 H   0  0  0  0  0  0  0  0  0  0  0  0
   22.8561   17.4633    0.0000 H   0  0  0  0  0  0  0  0  0  0  0  0
   20.0502   17.4633    0.0000 H   0  0  0  0  0  0  0  0  0  0  0  0
    8.2507   -6.2641    0.0000 H   0  0  0  0  0  0  0  0  0  0  0  0
    7.8522   -6.9544    0.0000 H   0  0  0  0  0  0  0  0  0  0  0  0
   22.8561   15.8433    0.0000 H   0  0  0  0  0  0  0  0  0  0  0  0
   20.0502   15.8433    0.0000 H   0  0  0  0  0  0  0  0  0  0  0  0
    9.5408   -6.9293    0.0000 H   0  0  0  0  0  0  0  0  0  0  0  0
    9.9394   -6.2390    0.0000 H   0  0  0  0  0  0  0  0  0  0  0  0
   21.9901   14.3433    0.0000 H   0  0  0  0  0  0  0  0  0  0  0  0
   20.0502   13.4633    0.0000 H   0  0  0  0  0  0  0  0  0  0  0  0
   21.0546   12.1783    0.0000 H   0  0  0  0  0  0  0  0  0  0  0  0
   21.8517   12.1783    0.0000 H   0  0  0  0  0  0  0  0  0  0  0  0
   22.7177   13.6282    0.0000 H   0  0  0  0  0  0  0  0  0  0  0  0
   21.9206   13.6282    0.0000 H   0  0  0  0  0  0  0  0  0  0  0  0
   22.7867   12.1783    0.0000 H   0  0  0  0  0  0  0  0  0  0  0  0
   23.5837   12.1783    0.0000 H   0  0  0  0  0  0  0  0  0  0  0  0
   19.1841   12.9633    0.0000 H   0  0  0  0  0  0  0  0  0  0  0  0
   10.4069   -5.4293    0.0000 H   0  0  0  0  0  0  0  0  0  0  0  0
   10.8054   -4.7390    0.0000 H   0  0  0  0  0  0  0  0  0  0  0  0
   24.4497   13.6282    0.0000 H   0  0  0  0  0  0  0  0  0  0  0  0
   23.6527   13.6282    0.0000 H   0  0  0  0  0  0  0  0  0  0  0  0
    9.9828   -3.2641    0.0000 H   0  0  0  0  0  0  0  0  0  0  0  0
    9.5842   -3.9544    0.0000 H   0  0  0  0  0  0  0  0  0  0  0  0
   18.6430   11.7359    0.0000 H   0  0  0  0  0  0  0  0  0  0  0  0
   18.2445   11.0456    0.0000 H   0  0  0  0  0  0  0  0  0  0  0  0
   25.4542   12.9633    0.0000 H   0  0  0  0  0  0  0  0  0  0  0  0
   24.9172   12.0333    0.0000 H   0  0  0  0  0  0  0  0  0  0  0  0
   10.8488   -1.7641    0.0000 H   0  0  0  0  0  0  0  0  0  0  0  0
   10.4503   -2.4544    0.0000 H   0  0  0  0  0  0  0  0  0  0  0  0
   17.7770   10.2359    0.0000 H   0  0  0  0  0  0  0  0  0  0  0  0
   17.3785    9.5456    0.0000 H   0  0  0  0  0  0  0  0  0  0  0  0
   12.1389   -2.4293    0.0000 H   0  0  0  0  0  0  0  0  0  0  0  0
   12.5374   -1.7390    0.0000 H   0  0  0  0  0  0  0  0  0  0  0  0
   16.5861    8.4633    0.0000 H   0  0  0  0  0  0  0  0  0  0  0  0
   17.3351    6.5707    0.0000 H   0  0  0  0  0  0  0  0  0  0  0  0
   17.7336    7.2610    0.0000 H   0  0  0  0  0  0  0  0  0  0  0  0
   16.0449    7.2359    0.0000 H   0  0  0  0  0  0  0  0  0  0  0  0
   15.6464    6.5456    0.0000 H   0  0  0  0  0  0  0  0  0  0  0  0
   13.0049   -0.9293    0.0000 H   0  0  0  0  0  0  0  0  0  0  0  0
   13.4035   -0.2390    0.0000 H   0  0  0  0  0  0  0  0  0  0  0  0
   12.5808    1.2359    0.0000 H   0  0  0  0  0  0  0  0  0  0  0  0
   12.1823    0.5456    0.0000 H   0  0  0  0  0  0  0  0  0  0  0  0
   15.1789    5.7359    0.0000 H   0  0  0  0  0  0  0  0  0  0  0  0
   14.7804    5.0456    0.0000 H   0  0  0  0  0  0  0  0  0  0  0  0
   15.6030    3.5707    0.0000 H   0  0  0  0  0  0  0  0  0  0  0  0
   16.0015    4.2610    0.0000 H   0  0  0  0  0  0  0  0  0  0  0  0
   13.4469    2.7359    0.0000 H   0  0  0  0  0  0  0  0  0  0  0  0
   13.0483    2.0456    0.0000 H   0  0  0  0  0  0  0  0  0  0  0  0
   14.7370    2.0707    0.0000 H   0  0  0  0  0  0  0  0  0  0  0  0
   15.1355    2.7609    0.0000 H   0  0  0  0  0  0  0  0  0  0  0  0
  1 48  1  0  0  0  0
  1 51  1  0  0  0  0
  2 45  2  0  0  0  0
  3 46  2  0  0  0  0
  4 47  2  0  0  0  0
  5 68  1  0  0  0  0
  5 69  1  0  0  0  0
  6 55  1  0  0  0  0
  6151  1  0  0  0  0
 56  7  1  6  0  0  0
  7 79  1  0  0  0  0
  8 55  2  0  0  0  0
  9 65  2  0  0  0  0
 10 71  1  0  0  0  0
 10 81  1  0  0  0  0
 11 69  2  0  0  0  0
 12 79  1  0  0  0  0
 12 83  1  0  0  0  0
 13 78  1  0  0  0  0
 13163  1  0  0  0  0
 14 79  2  0  0  0  0
 15 82  1  0  0  0  0
 15 87  1  0  0  0  0
 16 91  1  0  0  0  0
 16 97  1  0  0  0  0
 17 94  2  0  0  0  0
 18100  1  0  0  0  0
 18102  1  0  0  0  0
 19 99  2  0  0  0  0
 20101  1  0  0  0  0
 20103  1  0  0  0  0
 21104  1  0  0  0  0
 21108  1  0  0  0  0
 22105  2  0  0  0  0
 23107  1  0  0  0  0
 23110  1  0  0  0  0
 24109  1  0  0  0  0
 24112  1  0  0  0  0
 25111  1  0  0  0  0
 25113  1  0  0  0  0
 26 44  1  0  0  0  0
 26 46  1  0  0  0  0
 26 47  1  0  0  0  0
 27 45  1  0  0  0  0
 27 50  1  0  0  0  0
 27129  1  0  0  0  0
 28 32  2  0  0  0  0
 28 52  1  0  0  0  0
 29 32  1  0  0  0  0
 29 54  1  0  0  0  0
 29 63  1  0  0  0  0
 53 30  1  6  0  0  0
 30136  1  0  0  0  0
 30137  1  0  0  0  0
 31 58  1  0  0  0  0
 31 59  1  0  0  0  0
 31 65  1  0  0  0  0
 33 62  2  0  0  0  0
 33 73  1  0  0  0  0
 34 90  1  0  0  0  0
 34 94  1  0  0  0  0
 34176  1  0  0  0  0
 92 35  1  6  0  0  0
 35 99  1  0  0  0  0
 35184  1  0  0  0  0
 36 98  1  0  0  0  0
 36193  1  0  0  0  0
 36194  1  0  0  0  0
 37105  1  0  0  0  0
 37106  1  0  0  0  0
 37201  1  0  0  0  0
 38 39  1  0  0  0  0
 38 40  1  0  0  0  0
 38 44  1  0  0  0  0
 38114  1  0  0  0  0
 39 42  1  0  0  0  0
 39115  1  0  0  0  0
 39116  1  0  0  0  0
 40 43  1  0  0  0  0
 40117  1  0  0  0  0
 40118  1  0  0  0  0
 41 42  1  0  0  0  0
 41 43  1  0  0  0  0
 41 45  1  0  0  0  0
 41119  1  0  0  0  0
 42120  1  0  0  0  0
 42121  1  0  0  0  0
 43122  1  0  0  0  0
 43123  1  0  0  0  0
 44124  1  0  0  0  0
 44125  1  0  0  0  0
 46 48  1  0  0  0  0
 47 49  1  0  0  0  0
 48 49  1  0  0  0  0
 48126  1  0  0  0  0
 49127  1  0  0  0  0
 49128  1  0  0  0  0
 50 52  1  0  0  0  0
 50130  1  0  0  0  0
 50131  1  0  0  0  0
 51 53  1  0  0  0  0
 51132  1  0  0  0  0
 51133  1  0  0  0  0
 52 54  2  0  0  0  0
 53 55  1  0  0  0  0
 53134  1  0  0  0  0
 54135  1  0  0  0  0
 56 57  1  0  0  0  0
 56 67  1  0  0  0  0
 56 69  1  0  0  0  0
 57 61  2  0  0  0  0
 57 64  1  0  0  0  0
 58 62  1  0  0  0  0
 58 64  2  0  0  0  0
 59 60  1  0  0  0  0
 59138  1  0  0  0  0
 59139  1  0  0  0  0
 60 62  1  0  0  0  0
 60 66  2  0  0  0  0
 61 65  1  0  0  0  0
 61 68  1  0  0  0  0
 63 71  1  0  0  0  0
 63140  1  0  0  0  0
 63141  1  0  0  0  0
 64142  1  0  0  0  0
 66 70  1  0  0  0  0
 66 72  1  0  0  0  0
 67 74  1  0  0  0  0
 67143  1  0  0  0  0
 67144  1  0  0  0  0
 68145  1  0  0  0  0
 68146  1  0  0  0  0
 70 73  2  0  0  0  0
 70 75  1  0  0  0  0
 71149  1  0  0  0  0
 71150  1  0  0  0  0
 72 76  1  0  0  0  0
 72147  1  0  0  0  0
 72148  1  0  0  0  0
 73 77  1  0  0  0  0
 74152  1  0  0  0  0
 74153  1  0  0  0  0
 74154  1  0  0  0  0
 75 78  2  0  0  0  0
 75155  1  0  0  0  0
 76156  1  0  0  0  0
 76157  1  0  0  0  0
 76158  1  0  0  0  0
 77 80  2  0  0  0  0
 77159  1  0  0  0  0
 78 80  1  0  0  0  0
 80160  1  0  0  0  0
 81 82  1  0  0  0  0
 81161  1  0  0  0  0
 81162  1  0  0  0  0
 82164  1  0  0  0  0
 82165  1  0  0  0  0
 83 84  1  0  0  0  0
 83166  1  0  0  0  0
 83167  1  0  0  0  0
 84 85  2  0  0  0  0
 84 86  1  0  0  0  0
 85 88  1  0  0  0  0
 85168  1  0  0  0  0
 86 89  2  0  0  0  0
 86169  1  0  0  0  0
 87 91  1  0  0  0  0
 87170  1  0  0  0  0
 87171  1  0  0  0  0
 88 90  2  0  0  0  0
 88172  1  0  0  0  0
 89 90  1  0  0  0  0
 89173  1  0  0  0  0
 91174  1  0  0  0  0
 91175  1  0  0  0  0
 92 93  1  0  0  0  0
 92 94  1  0  0  0  0
 92177  1  0  0  0  0
 93 95  1  0  0  0  0
 93178  1  0  0  0  0
 93179  1  0  0  0  0
 95 96  1  0  0  0  0
 95180  1  0  0  0  0
 95181  1  0  0  0  0
 96 98  1  0  0  0  0
 96182  1  0  0  0  0
 96183  1  0  0  0  0
 97100  1  0  0  0  0
 97185  1  0  0  0  0
 97186  1  0  0  0  0
 98187  1  0  0  0  0
 98188  1  0  0  0  0
 99101  1  0  0  0  0
100189  1  0  0  0  0
100190  1  0  0  0  0
101191  1  0  0  0  0
101192  1  0  0  0  0
102104  1  0  0  0  0
102195  1  0  0  0  0
102196  1  0  0  0  0
103105  1  0  0  0  0
103197  1  0  0  0  0
103198  1  0  0  0  0
104199  1  0  0  0  0
104200  1  0  0  0  0
106107  1  0  0  0  0
106202  1  0  0  0  0
106203  1  0  0  0  0
107204  1  0  0  0  0
107205  1  0  0  0  0
108109  1  0  0  0  0
108206  1  0  0  0  0
108207  1  0  0  0  0
109208  1  0  0  0  0
109209  1  0  0  0  0
110111  1  0  0  0  0
110210  1  0  0  0  0
110211  1  0  0  0  0
111212  1  0  0  0  0
111213  1  0  0  0  0
112113  1  0  0  0  0
112214  1  0  0  0  0
112215  1  0  0  0  0
113216  1  0  0  0  0
113217  1  0  0  0  0
M  END
> <PUBCHEM_COMPOUND_CID>
91668186

> <PUBCHEM_COMPOUND_CANONICALIZED>
1

> <PUBCHEM_CACTVS_COMPLEXITY>
3150

> <PUBCHEM_CACTVS_HBOND_ACCEPTOR>
30

> <PUBCHEM_CACTVS_HBOND_DONOR>
8

> <PUBCHEM_CACTVS_ROTATABLE_BOND>
54

> <PUBCHEM_CACTVS_SUBSKEYS>
AAADcfB//gBAAAAAAAAAAAAAAAAAAWLFgAA8YMECAAAAAFix/AAAHgQYCAAADWzl3ga+zvPIFgiqAzX3XAKChCQxsjAY2KH+fNgbZvbi8b+3cAhm9jH++Qe92POOiEABAAACAACQgAIAAAQAAAAAAAAAAA==

> <PUBCHEM_IUPAC_OPENEYE_NAME>
(2R)-2-amino-3-[1-[[4-[[1-[2-[2-[2-[2-[2-[2-[2-[2-[2-[[2-[2-[[(1S)-5-amino-1-[[4-[[(19S)-10,19-diethyl-7-hydroxy-14,18-dioxo-17-oxa-3,13-diazapentacyclo[11.8.0.02,11.04,9.015,20]henicosa-1(21),2,4(9),5,7,10,15(20)-heptaen-19-yl]oxycarbonyloxymethyl]phenyl]carbamoyl]pentyl]amino]-2-oxo-ethoxy]acetyl]amino]ethoxy]ethoxy]ethoxy]ethoxy]ethoxy]ethoxy]ethoxy]ethoxy]ethyl]triazol-4-yl]methylcarbamoyl]cyclohexyl]methyl]-2,5-dioxo-pyrrolidin-3-yl]sulfanyl-propanoic acid

> <PUBCHEM_IUPAC_CAS_NAME>
(2R)-2-amino-3-[[1-[[4-[[[1-[2-[2-[2-[2-[2-[2-[2-[2-[2-[[2-[2-[[(2S)-6-amino-1-[4-[[[(19S)-10,19-diethyl-7-hydroxy-14,18-dioxo-17-oxa-3,13-diazapentacyclo[11.8.0.02,11.04,9.015,20]heneicosa-1(21),2,4(9),5,7,10,15(20)-heptaen-19-yl]oxy-oxomethoxy]methyl]anilino]-1-oxohexan-2-yl]amino]-2-oxoethoxy]-1-oxoethyl]amino]ethoxy]ethoxy]ethoxy]ethoxy]ethoxy]ethoxy]ethoxy]ethoxy]ethyl]-4-triazolyl]methylamino]-oxomethyl]cyclohexyl]methyl]-2,5-dioxo-3-pyrrolidinyl]thio]propanoic acid

> <PUBCHEM_IUPAC_NAME_MARKUP>
(2<I>R</I>)-2-amino-3-[1-[[4-[[1-[2-[2-[2-[2-[2-[2-[2-[2-[2-[[2-[2-[[(2<I>S</I>)-6-amino-1-[4-[[(19<I>S</I>)-10,19-diethyl-7-hydroxy-14,18-dioxo-17-oxa-3,13-diazapentacyclo[11.8.0.0<SUP>2,11</SUP>.0<SUP>4,9</SUP>.0<SUP>15,20</SUP>]henicosa-1(21),2,4(9),5,7,10,15(20)-heptaen-19-yl]oxycarbonyloxymethyl]anilino]-1-oxohexan-2-yl]amino]-2-oxoethoxy]acetyl]amino]ethoxy]ethoxy]ethoxy]ethoxy]ethoxy]ethoxy]ethoxy]ethoxy]ethyl]triazol-4-yl]methylcarbamoyl]cyclohexyl]methyl]-2,5-dioxopyrrolidin-3-yl]sulfanylpropanoic acid

> <PUBCHEM_IUPAC_NAME>
(2R)-2-amino-3-[1-[[4-[[1-[2-[2-[2-[2-[2-[2-[2-[2-[2-[[2-[2-[[(2S)-6-amino-1-[4-[[(19S)-10,19-diethyl-7-hydroxy-14,18-dioxo-17-oxa-3,13-diazapentacyclo[11.8.0.02,11.04,9.015,20]henicosa-1(21),2,4(9),5,7,10,15(20)-heptaen-19-yl]oxycarbonyloxymethyl]anilino]-1-oxohexan-2-yl]amino]-2-oxoethoxy]acetyl]amino]ethoxy]ethoxy]ethoxy]ethoxy]ethoxy]ethoxy]ethoxy]ethoxy]ethyl]triazol-4-yl]methylcarbamoyl]cyclohexyl]methyl]-2,5-dioxopyrrolidin-3-yl]sulfanylpropanoic acid

> <PUBCHEM_IUPAC_SYSTEMATIC_NAME>
(2R)-2-azanyl-3-[1-[[4-[[1-[2-[2-[2-[2-[2-[2-[2-[2-[2-[2-[2-[[(2S)-6-azanyl-1-[[4-[[(19S)-10,19-diethyl-7-oxidanyl-14,18-bis(oxidanylidene)-17-oxa-3,13-diazapentacyclo[11.8.0.02,11.04,9.015,20]henicosa-1(21),2,4(9),5,7,10,15(20)-heptaen-19-yl]oxycarbonyloxymethyl]phenyl]amino]-1-oxidanylidene-hexan-2-yl]amino]-2-oxidanylidene-ethoxy]ethanoylamino]ethoxy]ethoxy]ethoxy]ethoxy]ethoxy]ethoxy]ethoxy]ethoxy]ethyl]-1,2,3-triazol-4-yl]methylcarbamoyl]cyclohexyl]methyl]-2,5-bis(oxidanylidene)pyrrolidin-3-yl]sulfanyl-propanoic acid

> <PUBCHEM_IUPAC_TRADITIONAL_NAME>
(2R)-2-amino-3-[[1-[[4-[[1-[2-[2-[2-[2-[2-[2-[2-[2-[2-[[2-[2-[[(1S)-5-amino-1-[[4-[[(19S)-10,19-diethyl-7-hydroxy-14,18-diketo-17-oxa-3,13-diazapentacyclo[11.8.0.02,11.04,9.015,20]heneicosa-1(21),2,4(9),5,7,10,15(20)-heptaen-19-yl]oxycarbonyloxymethyl]phenyl]carbamoyl]pentyl]amino]-2-keto-ethoxy]acetyl]amino]ethoxy]ethoxy]ethoxy]ethoxy]ethoxy]ethoxy]ethoxy]ethoxy]ethyl]triazol-4-yl]methylcarbamoyl]cyclohexyl]methyl]-2,5-diketo-pyrrolidin-3-yl]thio]propionic acid

> <PUBCHEM_IUPAC_INCHI>
InChI=1S/C76H104N12O24S/c1-3-55-56-37-54(89)16-17-61(56)83-68-57(55)43-87-63(68)38-59-58(71(87)95)45-110-74(99)76(59,4-2)112-75(100)111-44-50-10-14-52(15-11-50)81-70(94)62(7-5-6-18-77)82-66(91)47-109-46-65(90)79-19-21-101-23-25-103-27-29-105-31-33-107-35-36-108-34-32-106-30-28-104-26-24-102-22-20-86-42-53(84-85-86)40-80-69(93)51-12-8-49(9-13-51)41-88-67(92)39-64(72(88)96)113-48-60(78)73(97)98/h10-11,14-17,37-38,42,49,51,60,62,64,89H,3-9,12-13,18-36,39-41,43-48,77-78H2,1-2H3,(H,79,90)(H,80,93)(H,81,94)(H,82,91)(H,97,98)/t49?,51?,60-,62-,64?,76-/m0/s1

> <PUBCHEM_IUPAC_INCHIKEY>
ULRUOUDIQPERIJ-PQURJYPBSA-N

> <PUBCHEM_XLOGP3_AA>
-3.3

> <PUBCHEM_EXACT_MASS>
1600.70071340

> <PUBCHEM_MOLECULAR_FORMULA>
C76H104N12O24S

> <PUBCHEM_MOLECULAR_WEIGHT>
1601.8

> <PUBCHEM_OPENEYE_CAN_SMILES>
CCC1=C2CN3C(=CC4=C(C3=O)COC(=O)C4(CC)OC(=O)OCC5=CC=C(C=C5)NC(=O)C(CCCCN)NC(=O)COCC(=O)NCCOCCOCCOCCOCCOCCOCCOCCOCCN6C=C(N=N6)CNC(=O)C7CCC(CC7)CN8C(=O)CC(C8=O)SCC(C(=O)O)N)C2=NC9=C1C=C(C=C9)O

> <PUBCHEM_OPENEYE_ISO_SMILES>
CCC1=C2CN3C(=CC4=C(C3=O)COC(=O)[C@@]4(CC)OC(=O)OCC5=CC=C(C=C5)NC(=O)[C@H](CCCCN)NC(=O)COCC(=O)NCCOCCOCCOCCOCCOCCOCCOCCOCCN6C=C(N=N6)CNC(=O)C7CCC(CC7)CN8C(=O)CC(C8=O)SC[C@@H](C(=O)O)N)C2=NC9=C1C=C(C=C9)O

> <PUBCHEM_CACTVS_TPSA>
498

> <PUBCHEM_MONOISOTOPIC_WEIGHT>
1600.70071340

> <PUBCHEM_TOTAL_CHARGE>
0

> <PUBCHEM_HEAVY_ATOM_COUNT>
113

> <PUBCHEM_ATOM_DEF_STEREO_COUNT>
3

> <PUBCHEM_ATOM_UDEF_STEREO_COUNT>
1

> <PUBCHEM_BOND_DEF_STEREO_COUNT>
0

> <PUBCHEM_BOND_UDEF_STEREO_COUNT>
0

> <PUBCHEM_ISOTOPIC_ATOM_COUNT>
0

> <PUBCHEM_COMPONENT_COUNT>
1

> <PUBCHEM_CACTVS_TAUTO_COUNT>
288

> <PUBCHEM_COORDINATE_TYPE>
1
5
255

> <PUBCHEM_BONDANNOTATIONS>
48  1  3
28  32  8
28  52  8
29  32  8
29  54  8
53  30  6
31  58  8
31  65  8
33  62  8
33  73  8
92  35  6
52  54  8
57  61  8
57  64  8
58  64  8
60  62  8
60  66  8
61  65  8
66  70  8
56  7  6
70  73  8
70  75  8
73  77  8
75  78  8
77  80  8
78  80  8
84  85  8
84  86  8
85  88  8
86  89  8
88  90  8
89  90  8

$$$$
