11593706
  -OEChem-12122310212D

 27 25  0     1  0  0  0  0  0999 V2000
    5.7229    2.3660    0.0000 Cl  0  0  0  0  0  0  0  0  0  0  0  0
    7.0889    0.0000    0.0000 O   0  0  0  0  0  0  0  0  0  0  0  0
    2.2690    3.8030    0.0000 O   0  0  0  0  0  0  0  0  0  0  0  0
    0.5369    3.8030    0.0000 O   0  0  0  0  0  0  0  0  0  0  0  0
    1.4030    2.3030    0.0000 O   0  0  0  0  0  0  0  0  0  0  0  0
    5.3429    5.4860    0.0000 N   0  0  0  0  0  0  0  0  0  0  0  0
    6.5889    0.8660    0.0000 C   0  0  3  0  0  0  0  0  0  0  0  0
    7.5889    0.8660    0.0000 C   0  0  0  0  0  0  0  0  0  0  0  0
    5.7229    1.3660    0.0000 C   0  0  0  0  0  0  0  0  0  0  0  0
    6.2089    4.9860    0.0000 C   0  0  0  0  0  0  0  0  0  0  0  0
    7.0749    5.4860    0.0000 C   0  0  0  0  0  0  0  0  0  0  0  0
    7.9409    4.9860    0.0000 C   0  0  0  0  0  0  0  0  0  0  0  0
    1.4030    3.3030    0.0000 C   0  0  0  0  0  0  0  0  0  0  0  0
    5.9878    0.2650    0.0000 H   0  0  0  0  0  0  0  0  0  0  0  0
    8.1715    0.6540    0.0000 H   0  0  0  0  0  0  0  0  0  0  0  0
    7.6966    1.4766    0.0000 H   0  0  0  0  0  0  0  0  0  0  0  0
    5.1123    1.4737    0.0000 H   0  0  0  0  0  0  0  0  0  0  0  0
    5.5108    0.7834    0.0000 H   0  0  0  0  0  0  0  0  0  0  0  0
    5.8104    4.5111    0.0000 H   0  0  0  0  0  0  0  0  0  0  0  0
    6.6074    4.5111    0.0000 H   0  0  0  0  0  0  0  0  0  0  0  0
    7.0749    6.1060    0.0000 H   0  0  0  0  0  0  0  0  0  0  0  0
    4.8059    5.1760    0.0000 H   0  0  0  0  0  0  0  0  0  0  0  0
    5.3429    6.1060    0.0000 H   0  0  0  0  0  0  0  0  0  0  0  0
    7.9409    4.3660    0.0000 H   0  0  0  0  0  0  0  0  0  0  0  0
    8.4779    5.2960    0.0000 H   0  0  0  0  0  0  0  0  0  0  0  0
    2.8059    3.4930    0.0000 H   0  0  0  0  0  0  0  0  0  0  0  0
    0.0000    3.4930    0.0000 H   0  0  0  0  0  0  0  0  0  0  0  0
  1  9  1  0  0  0  0
  2  7  1  0  0  0  0
  2  8  1  0  0  0  0
  3 13  1  0  0  0  0
  3 26  1  0  0  0  0
  4 13  1  0  0  0  0
  4 27  1  0  0  0  0
  5 13  2  0  0  0  0
  6 10  1  0  0  0  0
  6 22  1  0  0  0  0
  6 23  1  0  0  0  0
  7  8  1  0  0  0  0
  7  9  1  0  0  0  0
  7 14  1  0  0  0  0
  8 15  1  0  0  0  0
  8 16  1  0  0  0  0
  9 17  1  0  0  0  0
  9 18  1  0  0  0  0
 10 11  1  0  0  0  0
 10 19  1  0  0  0  0
 10 20  1  0  0  0  0
 11 12  2  0  0  0  0
 11 21  1  0  0  0  0
 12 24  1  0  0  0  0
 12 25  1  0  0  0  0
M  END
> <PUBCHEM_COMPOUND_CID>
11593706

> <PUBCHEM_COMPOUND_CANONICALIZED>
1

> <PUBCHEM_CACTVS_COMPLEXITY>
81.4

> <PUBCHEM_CACTVS_HBOND_ACCEPTOR>
5

> <PUBCHEM_CACTVS_HBOND_DONOR>
3

> <PUBCHEM_CACTVS_ROTATABLE_BOND>
2

> <PUBCHEM_CACTVS_SUBSKEYS>
AAADccBiOAAEAAAAAAAAAAAAEgAAAAAAAAAAAAAAAAAAAAAAAAAAHgIQCAAACBfhgEYACABABgCIACBCCACAAAAAAAAIAIAAAwAAAAAAAQAAAAAAEAAAAAAAAAAAAAAAAAAAAAAAAAAAAAAAAAAAAAAAAA==

> <PUBCHEM_IUPAC_OPENEYE_NAME>
carbonic acid;2-(chloromethyl)oxirane;prop-2-en-1-amine

> <PUBCHEM_IUPAC_CAS_NAME>
carbonic acid;2-(chloromethyl)oxirane;2-propen-1-amine

> <PUBCHEM_IUPAC_NAME_MARKUP>
carbonic acid;2-(chloromethyl)oxirane;prop-2-en-1-amine

> <PUBCHEM_IUPAC_NAME>
carbonic acid;2-(chloromethyl)oxirane;prop-2-en-1-amine

> <PUBCHEM_IUPAC_SYSTEMATIC_NAME>
carbonic acid;2-(chloromethyl)oxirane;prop-2-en-1-amine

> <PUBCHEM_IUPAC_TRADITIONAL_NAME>
allylamine;carbonic acid;2-(chloromethyl)oxirane

> <PUBCHEM_IUPAC_INCHI>
InChI=1S/C3H5ClO.C3H7N.CH2O3/c4-1-3-2-5-3;1-2-3-4;2-1(3)4/h3H,1-2H2;2H,1,3-4H2;(H2,2,3,4)

> <PUBCHEM_IUPAC_INCHIKEY>
PADGNZFOVSZIKZ-UHFFFAOYSA-N

> <PUBCHEM_EXACT_MASS>
211.0611356

> <PUBCHEM_MOLECULAR_FORMULA>
C7H14ClNO4

> <PUBCHEM_MOLECULAR_WEIGHT>
211.64

> <PUBCHEM_OPENEYE_CAN_SMILES>
C=CCN.C1C(O1)CCl.C(=O)(O)O

> <PUBCHEM_OPENEYE_ISO_SMILES>
C=CCN.C1C(O1)CCl.C(=O)(O)O

> <PUBCHEM_CACTVS_TPSA>
96.1

> <PUBCHEM_MONOISOTOPIC_WEIGHT>
211.0611356

> <PUBCHEM_TOTAL_CHARGE>
0

> <PUBCHEM_HEAVY_ATOM_COUNT>
13

> <PUBCHEM_ATOM_DEF_STEREO_COUNT>
0

> <PUBCHEM_ATOM_UDEF_STEREO_COUNT>
1

> <PUBCHEM_BOND_DEF_STEREO_COUNT>
0

> <PUBCHEM_BOND_UDEF_STEREO_COUNT>
0

> <PUBCHEM_ISOTOPIC_ATOM_COUNT>
0

> <PUBCHEM_COMPONENT_COUNT>
3

> <PUBCHEM_CACTVS_TAUTO_COUNT>
1

> <PUBCHEM_COORDINATE_TYPE>
1
5
255

> <PUBCHEM_BONDANNOTATIONS>
7  14  3

$$$$
