122197536
  -OEChem-12122308492D

186186  0     1  0  0  0  0  0999 V2000
   18.4545  -11.5950    0.0000 S   0  0  0  0  0  0  0  0  0  0  0  0
    6.3301    9.4050    0.0000 S   0  0  0  0  0  0  0  0  0  0  0  0
   18.9545  -10.7290    0.0000 O   0  0  0  0  0  0  0  0  0  0  0  0
   17.9545  -12.4610    0.0000 O   0  0  0  0  0  0  0  0  0  0  0  0
   14.9904  -12.5950    0.0000 O   0  0  0  0  0  0  0  0  0  0  0  0
   11.5263    3.4050    0.0000 O   0  0  0  0  0  0  0  0  0  0  0  0
   11.5263  -11.5950    0.0000 O   0  0  0  0  0  0  0  0  0  0  0  0
    8.0622    0.4050    0.0000 O   0  0  0  0  0  0  0  0  0  0  0  0
    8.0622    2.4050    0.0000 O   0  0  0  0  0  0  0  0  0  0  0  0
    5.4641   -8.0950    0.0000 O   0  0  0  0  0  0  0  0  0  0  0  0
    7.1962   -2.0950    0.0000 O   0  0  0  0  0  0  0  0  0  0  0  0
    8.9282  -11.0950    0.0000 O   0  0  0  0  0  0  0  0  0  0  0  0
    8.0622    8.4050    0.0000 O   0  0  0  0  0  0  0  0  0  0  0  0
    2.8660   -5.5950    0.0000 O   0  0  0  0  0  0  0  0  0  0  0  0
    3.7320  -11.0950    0.0000 O   0  0  0  0  0  0  0  0  0  0  0  0
    2.0000   -7.0950    0.0000 O   0  0  0  0  0  0  0  0  0  0  0  0
    6.3301   -5.5950    0.0000 O   0  0  0  0  0  0  0  0  0  0  0  0
    4.5981  -12.5950    0.0000 O   0  0  0  0  0  0  0  0  0  0  0  0
    7.1962  -10.0950    0.0000 O   0  0  0  0  0  0  0  0  0  0  0  0
    4.5981   12.4050    0.0000 O   0  0  0  0  0  0  0  0  0  0  0  0
    3.7320   10.9050    0.0000 O   0  0  0  0  0  0  0  0  0  0  0  0
   19.3205  -12.0950    0.0000 N   0  0  0  0  0  0  0  0  0  0  0  0
   34.9565  -12.0017    0.0000 N   0  0  0  0  0  0  0  0  0  0  0  0
   34.1475  -10.6005    0.0000 N   0  0  0  0  0  0  0  0  0  0  0  0
   35.6256  -11.2586    0.0000 N   0  0  0  0  0  0  0  0  0  0  0  0
   35.1256  -10.3926    0.0000 N   0  0  0  0  0  0  0  0  0  0  0  0
    9.7942    2.4050    0.0000 N   0  0  0  0  0  0  0  0  0  0  0  0
   14.1244  -11.0950    0.0000 N   0  0  0  0  0  0  0  0  0  0  0  0
    7.1962    6.9050    0.0000 N   0  0  0  0  0  0  0  0  0  0  0  0
    3.7320   -8.0950    0.0000 N   0  0  0  0  0  0  0  0  0  0  0  0
   10.6603    4.9050    0.0000 N   0  0  0  0  0  0  0  0  0  0  0  0
    6.3301  -11.5950    0.0000 N   0  0  0  0  0  0  0  0  0  0  0  0
    5.4641   -4.0950    0.0000 N   0  0  0  0  0  0  0  0  0  0  0  0
    6.3301   11.4050    0.0000 N   0  0  0  0  0  0  0  0  0  0  0  0
   27.1147  -11.5950    0.0000 C   0  0  0  0  0  0  0  0  0  0  0  0
   26.2487  -12.0950    0.0000 C   0  0  0  0  0  0  0  0  0  0  0  0
   27.9808  -12.0950    0.0000 C   0  0  0  0  0  0  0  0  0  0  0  0
   25.3827  -11.5950    0.0000 C   0  0  0  0  0  0  0  0  0  0  0  0
   28.8468  -11.5950    0.0000 C   0  0  0  0  0  0  0  0  0  0  0  0
   24.5167  -12.0950    0.0000 C   0  0  0  0  0  0  0  0  0  0  0  0
   29.7128  -12.0950    0.0000 C   0  0  0  0  0  0  0  0  0  0  0  0
   23.6506  -11.5950    0.0000 C   0  0  0  0  0  0  0  0  0  0  0  0
   30.5788  -11.5950    0.0000 C   0  0  0  0  0  0  0  0  0  0  0  0
   22.7846  -12.0950    0.0000 C   0  0  0  0  0  0  0  0  0  0  0  0
   31.4449  -12.0950    0.0000 C   0  0  0  0  0  0  0  0  0  0  0  0
   21.9186  -11.5950    0.0000 C   0  0  0  0  0  0  0  0  0  0  0  0
   32.3109  -11.5950    0.0000 C   0  0  0  0  0  0  0  0  0  0  0  0
   21.0526  -12.0950    0.0000 C   0  0  0  0  0  0  0  0  0  0  0  0
   33.1769  -12.0950    0.0000 C   0  0  0  0  0  0  0  0  0  0  0  0
   20.1865  -11.5950    0.0000 C   0  0  0  0  0  0  0  0  0  0  0  0
   34.0429  -11.5950    0.0000 C   0  0  0  0  0  0  0  0  0  0  0  0
   17.5885  -11.0950    0.0000 C   0  0  0  0  0  0  0  0  0  0  0  0
   20.1865  -10.5950    0.0000 C   0  0  0  0  0  0  0  0  0  0  0  0
   16.7224  -11.5950    0.0000 C   0  0  0  0  0  0  0  0  0  0  0  0
   15.8564  -11.0950    0.0000 C   0  0  0  0  0  0  0  0  0  0  0  0
    8.9282    3.9050    0.0000 C   0  0  0  0  0  0  0  0  0  0  0  0
    8.9282    4.9050    0.0000 C   0  0  0  0  0  0  0  0  0  0  0  0
    9.7942    3.4050    0.0000 C   0  0  1  0  0  0  0  0  0  0  0  0
    8.0622    5.4050    0.0000 C   0  0  0  0  0  0  0  0  0  0  0  0
   14.9904  -11.5950    0.0000 C   0  0  0  0  0  0  0  0  0  0  0  0
    8.0622    6.4050    0.0000 C   0  0  0  0  0  0  0  0  0  0  0  0
   10.6603    3.9050    0.0000 C   0  0  0  0  0  0  0  0  0  0  0  0
   13.2583  -11.5950    0.0000 C   0  0  0  0  0  0  0  0  0  0  0  0
    3.7320   -7.0950    0.0000 C   0  0  1  0  0  0  0  0  0  0  0  0
    4.5981   -6.5950    0.0000 C   0  0  0  0  0  0  0  0  0  0  0  0
    5.4641  -10.0950    0.0000 C   0  0  0  0  0  0  0  0  0  0  0  0
    8.9282    1.9050    0.0000 C   0  0  0  0  0  0  0  0  0  0  0  0
    4.5981   -9.5950    0.0000 C   0  0  0  0  0  0  0  0  0  0  0  0
    5.4641  -11.0950    0.0000 C   0  0  1  0  0  0  0  0  0  0  0  0
    4.5981   -5.5950    0.0000 C   0  0  0  0  0  0  0  0  0  0  0  0
   12.3923  -11.0950    0.0000 C   0  0  0  0  0  0  0  0  0  0  0  0
    4.5981   -8.5950    0.0000 C   0  0  0  0  0  0  0  0  0  0  0  0
    8.9282    0.9050    0.0000 C   0  0  0  0  0  0  0  0  0  0  0  0
    7.1962    7.9050    0.0000 C   0  0  0  0  0  0  0  0  0  0  0  0
    2.8660   -6.5950    0.0000 C   0  0  0  0  0  0  0  0  0  0  0  0
    5.4641   -5.0950    0.0000 C   0  0  0  0  0  0  0  0  0  0  0  0
    6.3301    8.4050    0.0000 C   0  0  0  0  0  0  0  0  0  0  0  0
    4.5981  -11.5950    0.0000 C   0  0  0  0  0  0  0  0  0  0  0  0
    6.3301   -3.5950    0.0000 C   0  0  0  0  0  0  0  0  0  0  0  0
    8.0622   -0.5950    0.0000 C   0  0  0  0  0  0  0  0  0  0  0  0
    7.1962  -11.0950    0.0000 C   0  0  0  0  0  0  0  0  0  0  0  0
   10.6603  -11.0950    0.0000 C   0  0  0  0  0  0  0  0  0  0  0  0
    6.3301   -2.5950    0.0000 C   0  0  0  0  0  0  0  0  0  0  0  0
    7.1962   -1.0950    0.0000 C   0  0  0  0  0  0  0  0  0  0  0  0
    8.0622  -11.5950    0.0000 C   0  0  0  0  0  0  0  0  0  0  0  0
    9.7942  -11.5950    0.0000 C   0  0  0  0  0  0  0  0  0  0  0  0
    5.4641    9.9050    0.0000 C   0  0  0  0  0  0  0  0  0  0  0  0
    5.4641   10.9050    0.0000 C   0  0  1  0  0  0  0  0  0  0  0  0
    4.5981   11.4050    0.0000 C   0  0  0  0  0  0  0  0  0  0  0  0
   27.5133  -11.1201    0.0000 H   0  0  0  0  0  0  0  0  0  0  0  0
   26.7162  -11.1201    0.0000 H   0  0  0  0  0  0  0  0  0  0  0  0
   25.8502  -12.5699    0.0000 H   0  0  0  0  0  0  0  0  0  0  0  0
   26.6472  -12.5699    0.0000 H   0  0  0  0  0  0  0  0  0  0  0  0
   27.5822  -12.5699    0.0000 H   0  0  0  0  0  0  0  0  0  0  0  0
   28.3793  -12.5699    0.0000 H   0  0  0  0  0  0  0  0  0  0  0  0
   25.7812  -11.1201    0.0000 H   0  0  0  0  0  0  0  0  0  0  0  0
   24.9842  -11.1201    0.0000 H   0  0  0  0  0  0  0  0  0  0  0  0
   29.2453  -11.1201    0.0000 H   0  0  0  0  0  0  0  0  0  0  0  0
   28.4483  -11.1201    0.0000 H   0  0  0  0  0  0  0  0  0  0  0  0
   24.1181  -12.5699    0.0000 H   0  0  0  0  0  0  0  0  0  0  0  0
   24.9152  -12.5699    0.0000 H   0  0  0  0  0  0  0  0  0  0  0  0
   29.3143  -12.5699    0.0000 H   0  0  0  0  0  0  0  0  0  0  0  0
   30.1113  -12.5699    0.0000 H   0  0  0  0  0  0  0  0  0  0  0  0
   24.0492  -11.1201    0.0000 H   0  0  0  0  0  0  0  0  0  0  0  0
   23.2521  -11.1201    0.0000 H   0  0  0  0  0  0  0  0  0  0  0  0
   30.9774  -11.1201    0.0000 H   0  0  0  0  0  0  0  0  0  0  0  0
   30.1803  -11.1201    0.0000 H   0  0  0  0  0  0  0  0  0  0  0  0
   22.3861  -12.5699    0.0000 H   0  0  0  0  0  0  0  0  0  0  0  0
   23.1831  -12.5699    0.0000 H   0  0  0  0  0  0  0  0  0  0  0  0
   31.0463  -12.5699    0.0000 H   0  0  0  0  0  0  0  0  0  0  0  0
   31.8434  -12.5699    0.0000 H   0  0  0  0  0  0  0  0  0  0  0  0
   22.3171  -11.1201    0.0000 H   0  0  0  0  0  0  0  0  0  0  0  0
   21.5201  -11.1201    0.0000 H   0  0  0  0  0  0  0  0  0  0  0  0
   32.7094  -11.1201    0.0000 H   0  0  0  0  0  0  0  0  0  0  0  0
   31.9124  -11.1201    0.0000 H   0  0  0  0  0  0  0  0  0  0  0  0
   20.6540  -12.5699    0.0000 H   0  0  0  0  0  0  0  0  0  0  0  0
   21.4511  -12.5699    0.0000 H   0  0  0  0  0  0  0  0  0  0  0  0
   32.7784  -12.5699    0.0000 H   0  0  0  0  0  0  0  0  0  0  0  0
   33.5754  -12.5699    0.0000 H   0  0  0  0  0  0  0  0  0  0  0  0
   19.3205  -12.7150    0.0000 H   0  0  0  0  0  0  0  0  0  0  0  0
   17.9870  -10.6201    0.0000 H   0  0  0  0  0  0  0  0  0  0  0  0
   17.1899  -10.6201    0.0000 H   0  0  0  0  0  0  0  0  0  0  0  0
   20.7235  -10.2850    0.0000 H   0  0  0  0  0  0  0  0  0  0  0  0
   19.6496  -10.2850    0.0000 H   0  0  0  0  0  0  0  0  0  0  0  0
   16.3239  -12.0699    0.0000 H   0  0  0  0  0  0  0  0  0  0  0  0
   17.1210  -12.0699    0.0000 H   0  0  0  0  0  0  0  0  0  0  0  0
   16.2549  -10.6201    0.0000 H   0  0  0  0  0  0  0  0  0  0  0  0
   15.4579  -10.6201    0.0000 H   0  0  0  0  0  0  0  0  0  0  0  0
    8.3176    4.0127    0.0000 H   0  0  0  0  0  0  0  0  0  0  0  0
    8.7162    3.3224    0.0000 H   0  0  0  0  0  0  0  0  0  0  0  0
    9.5388    4.7973    0.0000 H   0  0  0  0  0  0  0  0  0  0  0  0
    9.1402    5.4876    0.0000 H   0  0  0  0  0  0  0  0  0  0  0  0
   10.3312    3.0950    0.0000 H   0  0  0  0  0  0  0  0  0  0  0  0
   36.2422  -11.3234    0.0000 H   0  0  0  0  0  0  0  0  0  0  0  0
    7.4516    5.5127    0.0000 H   0  0  0  0  0  0  0  0  0  0  0  0
    7.8501    4.8224    0.0000 H   0  0  0  0  0  0  0  0  0  0  0  0
    8.6728    6.2973    0.0000 H   0  0  0  0  0  0  0  0  0  0  0  0
    8.2742    6.9876    0.0000 H   0  0  0  0  0  0  0  0  0  0  0  0
   10.3312    2.0950    0.0000 H   0  0  0  0  0  0  0  0  0  0  0  0
   14.1244  -10.4750    0.0000 H   0  0  0  0  0  0  0  0  0  0  0  0
   12.8598  -12.0699    0.0000 H   0  0  0  0  0  0  0  0  0  0  0  0
   13.6569  -12.0699    0.0000 H   0  0  0  0  0  0  0  0  0  0  0  0
    4.2690   -7.4050    0.0000 H   0  0  0  0  0  0  0  0  0  0  0  0
    6.6592    6.5950    0.0000 H   0  0  0  0  0  0  0  0  0  0  0  0
    4.8101   -7.1776    0.0000 H   0  0  0  0  0  0  0  0  0  0  0  0
    5.2087   -6.4873    0.0000 H   0  0  0  0  0  0  0  0  0  0  0  0
    6.0747  -10.2027    0.0000 H   0  0  0  0  0  0  0  0  0  0  0  0
    5.6762   -9.5124    0.0000 H   0  0  0  0  0  0  0  0  0  0  0  0
    3.9875   -9.4873    0.0000 H   0  0  0  0  0  0  0  0  0  0  0  0
    4.3860  -10.1776    0.0000 H   0  0  0  0  0  0  0  0  0  0  0  0
    5.4641  -11.7150    0.0000 H   0  0  0  0  0  0  0  0  0  0  0  0
    4.3860   -5.0124    0.0000 H   0  0  0  0  0  0  0  0  0  0  0  0
    3.9875   -5.7027    0.0000 H   0  0  0  0  0  0  0  0  0  0  0  0
    3.1951   -8.4050    0.0000 H   0  0  0  0  0  0  0  0  0  0  0  0
   12.7908  -10.6201    0.0000 H   0  0  0  0  0  0  0  0  0  0  0  0
   11.9938  -10.6201    0.0000 H   0  0  0  0  0  0  0  0  0  0  0  0
    9.1402    0.3224    0.0000 H   0  0  0  0  0  0  0  0  0  0  0  0
    9.5388    1.0127    0.0000 H   0  0  0  0  0  0  0  0  0  0  0  0
   11.1972    5.2150    0.0000 H   0  0  0  0  0  0  0  0  0  0  0  0
   10.1233    5.2150    0.0000 H   0  0  0  0  0  0  0  0  0  0  0  0
    6.3301  -12.2150    0.0000 H   0  0  0  0  0  0  0  0  0  0  0  0
    5.7195    8.5127    0.0000 H   0  0  0  0  0  0  0  0  0  0  0  0
    6.1181    7.8224    0.0000 H   0  0  0  0  0  0  0  0  0  0  0  0
    4.9272   -3.7850    0.0000 H   0  0  0  0  0  0  0  0  0  0  0  0
    6.5422   -4.1776    0.0000 H   0  0  0  0  0  0  0  0  0  0  0  0
    6.9407   -3.4873    0.0000 H   0  0  0  0  0  0  0  0  0  0  0  0
    8.2742   -1.1776    0.0000 H   0  0  0  0  0  0  0  0  0  0  0  0
    8.6728   -0.4873    0.0000 H   0  0  0  0  0  0  0  0  0  0  0  0
   11.0588  -10.6201    0.0000 H   0  0  0  0  0  0  0  0  0  0  0  0
   10.2617  -10.6201    0.0000 H   0  0  0  0  0  0  0  0  0  0  0  0
    6.1181   -2.0124    0.0000 H   0  0  0  0  0  0  0  0  0  0  0  0
    5.7195   -2.7027    0.0000 H   0  0  0  0  0  0  0  0  0  0  0  0
    6.9841   -0.5124    0.0000 H   0  0  0  0  0  0  0  0  0  0  0  0
    6.5856   -1.2027    0.0000 H   0  0  0  0  0  0  0  0  0  0  0  0
    7.6636  -12.0699    0.0000 H   0  0  0  0  0  0  0  0  0  0  0  0
    8.4607  -12.0699    0.0000 H   0  0  0  0  0  0  0  0  0  0  0  0
    9.3957  -12.0699    0.0000 H   0  0  0  0  0  0  0  0  0  0  0  0
   10.1928  -12.0699    0.0000 H   0  0  0  0  0  0  0  0  0  0  0  0
    4.8535   10.0127    0.0000 H   0  0  0  0  0  0  0  0  0  0  0  0
    5.2520    9.3224    0.0000 H   0  0  0  0  0  0  0  0  0  0  0  0
    2.3291   -5.2850    0.0000 H   0  0  0  0  0  0  0  0  0  0  0  0
    6.0010   10.5950    0.0000 H   0  0  0  0  0  0  0  0  0  0  0  0
    3.1951  -11.4050    0.0000 H   0  0  0  0  0  0  0  0  0  0  0  0
    6.3301   12.0250    0.0000 H   0  0  0  0  0  0  0  0  0  0  0  0
    6.8671   11.0950    0.0000 H   0  0  0  0  0  0  0  0  0  0  0  0
    4.0611   12.7150    0.0000 H   0  0  0  0  0  0  0  0  0  0  0  0
  1  3  2  0  0  0  0
  1  4  2  0  0  0  0
  1 22  1  0  0  0  0
  1 52  1  0  0  0  0
  2 77  1  0  0  0  0
  2 87  1  0  0  0  0
  5 60  2  0  0  0  0
  6 62  2  0  0  0  0
  7 71  1  0  0  0  0
  7 82  1  0  0  0  0
  8 73  1  0  0  0  0
  8 80  1  0  0  0  0
  9 67  2  0  0  0  0
 10 72  2  0  0  0  0
 11 83  1  0  0  0  0
 11 84  1  0  0  0  0
 12 85  1  0  0  0  0
 12 86  1  0  0  0  0
 13 74  2  0  0  0  0
 14 75  1  0  0  0  0
 14181  1  0  0  0  0
 15 78  1  0  0  0  0
 15183  1  0  0  0  0
 16 75  2  0  0  0  0
 17 76  2  0  0  0  0
 18 78  2  0  0  0  0
 19 81  2  0  0  0  0
 20 89  1  0  0  0  0
 20186  1  0  0  0  0
 21 89  2  0  0  0  0
 22 50  1  0  0  0  0
 22120  1  0  0  0  0
 23 25  1  0  0  0  0
 23 51  2  0  0  0  0
 24 26  2  0  0  0  0
 24 51  1  0  0  0  0
 25 26  1  0  0  0  0
 25134  1  0  0  0  0
 58 27  1  1  0  0  0
 27 67  1  0  0  0  0
 27139  1  0  0  0  0
 28 60  1  0  0  0  0
 28 63  1  0  0  0  0
 28140  1  0  0  0  0
 29 61  1  0  0  0  0
 29 74  1  0  0  0  0
 29144  1  0  0  0  0
 64 30  1  6  0  0  0
 30 72  1  0  0  0  0
 30154  1  0  0  0  0
 31 62  1  0  0  0  0
 31159  1  0  0  0  0
 31160  1  0  0  0  0
 69 32  1  6  0  0  0
 32 81  1  0  0  0  0
 32161  1  0  0  0  0
 33 76  1  0  0  0  0
 33 79  1  0  0  0  0
 33164  1  0  0  0  0
 88 34  1  1  0  0  0
 34184  1  0  0  0  0
 34185  1  0  0  0  0
 35 36  1  0  0  0  0
 35 37  1  0  0  0  0
 35 90  1  0  0  0  0
 35 91  1  0  0  0  0
 36 38  1  0  0  0  0
 36 92  1  0  0  0  0
 36 93  1  0  0  0  0
 37 39  1  0  0  0  0
 37 94  1  0  0  0  0
 37 95  1  0  0  0  0
 38 40  1  0  0  0  0
 38 96  1  0  0  0  0
 38 97  1  0  0  0  0
 39 41  1  0  0  0  0
 39 98  1  0  0  0  0
 39 99  1  0  0  0  0
 40 42  1  0  0  0  0
 40100  1  0  0  0  0
 40101  1  0  0  0  0
 41 43  1  0  0  0  0
 41102  1  0  0  0  0
 41103  1  0  0  0  0
 42 44  1  0  0  0  0
 42104  1  0  0  0  0
 42105  1  0  0  0  0
 43 45  1  0  0  0  0
 43106  1  0  0  0  0
 43107  1  0  0  0  0
 44 46  1  0  0  0  0
 44108  1  0  0  0  0
 44109  1  0  0  0  0
 45 47  1  0  0  0  0
 45110  1  0  0  0  0
 45111  1  0  0  0  0
 46 48  1  0  0  0  0
 46112  1  0  0  0  0
 46113  1  0  0  0  0
 47 49  1  0  0  0  0
 47114  1  0  0  0  0
 47115  1  0  0  0  0
 48 50  1  0  0  0  0
 48116  1  0  0  0  0
 48117  1  0  0  0  0
 49 51  1  0  0  0  0
 49118  1  0  0  0  0
 49119  1  0  0  0  0
 50 53  2  0  0  0  0
 52 54  1  0  0  0  0
 52121  1  0  0  0  0
 52122  1  0  0  0  0
 53123  1  0  0  0  0
 53124  1  0  0  0  0
 54 55  1  0  0  0  0
 54125  1  0  0  0  0
 54126  1  0  0  0  0
 55 60  1  0  0  0  0
 55127  1  0  0  0  0
 55128  1  0  0  0  0
 56 57  1  0  0  0  0
 56 58  1  0  0  0  0
 56129  1  0  0  0  0
 56130  1  0  0  0  0
 57 59  1  0  0  0  0
 57131  1  0  0  0  0
 57132  1  0  0  0  0
 58 62  1  0  0  0  0
 58133  1  0  0  0  0
 59 61  1  0  0  0  0
 59135  1  0  0  0  0
 59136  1  0  0  0  0
 61137  1  0  0  0  0
 61138  1  0  0  0  0
 63 71  1  0  0  0  0
 63141  1  0  0  0  0
 63142  1  0  0  0  0
 64 65  1  0  0  0  0
 64 75  1  0  0  0  0
 64143  1  0  0  0  0
 65 70  1  0  0  0  0
 65145  1  0  0  0  0
 65146  1  0  0  0  0
 66 68  1  0  0  0  0
 66 69  1  0  0  0  0
 66147  1  0  0  0  0
 66148  1  0  0  0  0
 67 73  1  0  0  0  0
 68 72  1  0  0  0  0
 68149  1  0  0  0  0
 68150  1  0  0  0  0
 69 78  1  0  0  0  0
 69151  1  0  0  0  0
 70 76  1  0  0  0  0
 70152  1  0  0  0  0
 70153  1  0  0  0  0
 71155  1  0  0  0  0
 71156  1  0  0  0  0
 73157  1  0  0  0  0
 73158  1  0  0  0  0
 74 77  1  0  0  0  0
 77162  1  0  0  0  0
 77163  1  0  0  0  0
 79 83  1  0  0  0  0
 79165  1  0  0  0  0
 79166  1  0  0  0  0
 80 84  1  0  0  0  0
 80167  1  0  0  0  0
 80168  1  0  0  0  0
 81 85  1  0  0  0  0
 82 86  1  0  0  0  0
 82169  1  0  0  0  0
 82170  1  0  0  0  0
 83171  1  0  0  0  0
 83172  1  0  0  0  0
 84173  1  0  0  0  0
 84174  1  0  0  0  0
 85175  1  0  0  0  0
 85176  1  0  0  0  0
 86177  1  0  0  0  0
 86178  1  0  0  0  0
 87 88  1  0  0  0  0
 87179  1  0  0  0  0
 87180  1  0  0  0  0
 88 89  1  0  0  0  0
 88182  1  0  0  0  0
M  END
> <PUBCHEM_COMPOUND_CID>
122197536

> <PUBCHEM_COMPOUND_CANONICALIZED>
1

> <PUBCHEM_CACTVS_COMPLEXITY>
2220

> <PUBCHEM_CACTVS_HBOND_ACCEPTOR>
25

> <PUBCHEM_CACTVS_HBOND_DONOR>
13

> <PUBCHEM_CACTVS_ROTATABLE_BOND>
60

> <PUBCHEM_CACTVS_SUBSKEYS>
AAADcfB//gBgAAAAAAAAAAAAAAAAAWAAAAAAAAAAAAAAAAABgAAAHgQYSAAACCjlwwaBGAbCBgqqAAfyeHJAAAIgAhAUIIH4AAgDQBIggSQXQAAElgCyAAGcn4IAAAAAAAAAAAAAAAAAAAAAAAAAAAAAAA==

> <PUBCHEM_IUPAC_OPENEYE_NAME>
(2S)-5-[2-[2-[2-[[(1S)-5-[[2-[(2R)-2-amino-2-carboxy-ethyl]sulfanylacetyl]amino]-1-carbamoyl-pentyl]amino]-2-oxo-ethoxy]ethoxy]ethylamino]-2-[[(4S)-4-carboxy-4-[[2-[2-[2-[4-[[1-methylene-16-(2H-tetrazol-5-yl)hexadecyl]sulfamoyl]butanoylamino]ethoxy]ethoxy]acetyl]amino]butanoyl]amino]-5-oxo-pentanoic acid

> <PUBCHEM_IUPAC_CAS_NAME>
(2S)-5-[2-[2-[2-[[(2S)-1-amino-6-[[2-[[(2R)-2-amino-2-carboxyethyl]thio]-1-oxoethyl]amino]-1-oxohexan-2-yl]amino]-2-oxoethoxy]ethoxy]ethylamino]-2-[[(4S)-4-carboxy-1-oxo-4-[[1-oxo-2-[2-[2-[[1-oxo-4-[17-(2H-tetrazol-5-yl)heptadec-1-en-2-ylsulfamoyl]butyl]amino]ethoxy]ethoxy]ethyl]amino]butyl]amino]-5-oxopentanoic acid

> <PUBCHEM_IUPAC_NAME_MARKUP>
(2<I>S</I>)-5-[2-[2-[2-[[(2<I>S</I>)-1-amino-6-[[2-[(2<I>R</I>)-2-amino-2-carboxyethyl]sulfanylacetyl]amino]-1-oxohexan-2-yl]amino]-2-oxoethoxy]ethoxy]ethylamino]-2-[[(4<I>S</I>)-4-carboxy-4-[[2-[2-[2-[4-[17-(2<I>H</I>-tetrazol-5-yl)heptadec-1-en-2-ylsulfamoyl]butanoylamino]ethoxy]ethoxy]acetyl]amino]butanoyl]amino]-5-oxopentanoic acid

> <PUBCHEM_IUPAC_NAME>
(2S)-5-[2-[2-[2-[[(2S)-1-amino-6-[[2-[(2R)-2-amino-2-carboxyethyl]sulfanylacetyl]amino]-1-oxohexan-2-yl]amino]-2-oxoethoxy]ethoxy]ethylamino]-2-[[(4S)-4-carboxy-4-[[2-[2-[2-[4-[17-(2H-tetrazol-5-yl)heptadec-1-en-2-ylsulfamoyl]butanoylamino]ethoxy]ethoxy]acetyl]amino]butanoyl]amino]-5-oxopentanoic acid

> <PUBCHEM_IUPAC_SYSTEMATIC_NAME>
(2S)-5-[2-[2-[2-[[(2S)-1-azanyl-6-[2-[(2R)-2-azanyl-3-oxidanyl-3-oxidanylidene-propyl]sulfanylethanoylamino]-1-oxidanylidene-hexan-2-yl]amino]-2-oxidanylidene-ethoxy]ethoxy]ethylamino]-5-oxidanylidene-2-[[(4S)-5-oxidanyl-5-oxidanylidene-4-[2-[2-[2-[4-[17-(2H-1,2,3,4-tetrazol-5-yl)heptadec-1-en-2-ylsulfamoyl]butanoylamino]ethoxy]ethoxy]ethanoylamino]pentanoyl]amino]pentanoic acid

> <PUBCHEM_IUPAC_TRADITIONAL_NAME>
(2S)-5-[2-[2-[2-[[(1S)-5-[[2-[[(2R)-2-amino-2-carboxy-ethyl]thio]acetyl]amino]-1-carbamoyl-pentyl]amino]-2-keto-ethoxy]ethoxy]ethylamino]-2-[[(4S)-4-carboxy-4-[[2-[2-[2-[4-[1-[15-(2H-tetrazol-5-yl)pentadecyl]vinylsulfamoyl]butanoylamino]ethoxy]ethoxy]acetyl]amino]butanoyl]amino]-5-keto-valeric acid

> <PUBCHEM_IUPAC_INCHI>
InChI=1S/C55H97N13O19S2/c1-40(18-13-11-9-7-5-3-2-4-6-8-10-12-14-20-45-64-67-68-65-45)66-89(82,83)35-17-21-46(69)59-27-29-84-32-34-87-37-50(73)63-44(55(80)81)23-25-48(71)62-43(54(78)79)22-24-47(70)60-28-30-85-31-33-86-36-49(72)61-42(52(57)75)19-15-16-26-58-51(74)39-88-38-41(56)53(76)77/h41-44,66H,1-39,56H2,(H2,57,75)(H,58,74)(H,59,69)(H,60,70)(H,61,72)(H,62,71)(H,63,73)(H,76,77)(H,78,79)(H,80,81)(H,64,65,67,68)/t41-,42-,43-,44-/m0/s1

> <PUBCHEM_IUPAC_INCHIKEY>
NAKSIOUBFDBTSW-ITMZJIMRSA-N

> <PUBCHEM_XLOGP3_AA>
-1.1

> <PUBCHEM_EXACT_MASS>
1307.64651026

> <PUBCHEM_MOLECULAR_FORMULA>
C55H97N13O19S2

> <PUBCHEM_MOLECULAR_WEIGHT>
1308.6

> <PUBCHEM_OPENEYE_CAN_SMILES>
C=C(CCCCCCCCCCCCCCCC1=NNN=N1)NS(=O)(=O)CCCC(=O)NCCOCCOCC(=O)NC(CCC(=O)NC(CCC(=O)NCCOCCOCC(=O)NC(CCCCNC(=O)CSCC(C(=O)O)N)C(=O)N)C(=O)O)C(=O)O

> <PUBCHEM_OPENEYE_ISO_SMILES>
C=C(CCCCCCCCCCCCCCCC1=NNN=N1)NS(=O)(=O)CCCC(=O)NCCOCCOCC(=O)N[C@@H](CCC(=O)N[C@@H](CCC(=O)NCCOCCOCC(=O)N[C@@H](CCCCNC(=O)CSC[C@@H](C(=O)O)N)C(=O)N)C(=O)O)C(=O)O

> <PUBCHEM_CACTVS_TPSA>
527

> <PUBCHEM_MONOISOTOPIC_WEIGHT>
1307.64651026

> <PUBCHEM_TOTAL_CHARGE>
0

> <PUBCHEM_HEAVY_ATOM_COUNT>
89

> <PUBCHEM_ATOM_DEF_STEREO_COUNT>
4

> <PUBCHEM_ATOM_UDEF_STEREO_COUNT>
0

> <PUBCHEM_BOND_DEF_STEREO_COUNT>
0

> <PUBCHEM_BOND_UDEF_STEREO_COUNT>
0

> <PUBCHEM_ISOTOPIC_ATOM_COUNT>
0

> <PUBCHEM_COMPONENT_COUNT>
1

> <PUBCHEM_CACTVS_TAUTO_COUNT>
-1

> <PUBCHEM_COORDINATE_TYPE>
1
5
255

> <PUBCHEM_BONDANNOTATIONS>
23  25  8
23  51  8
24  26  8
24  51  8
25  26  8
58  27  5
64  30  6
69  32  6
88  34  5

$$$$
