123801
  -OEChem-12122310242D

 17 15  0     0  0  0  0  0  0999 V2000
    2.0190    0.0000    0.0000 Tc  2  0  0  0  0  0  0  0  0  0  0  0
    3.1350    4.3100    0.0000 P   0  0  0  0  0  0  0  0  0  0  0  0
    1.4030    4.3100    0.0000 P   0  0  0  0  0  0  0  0  0  0  0  0
    2.2690    2.8100    0.0000 O   0  0  0  0  0  0  0  0  0  0  0  0
    4.0010    4.8100    0.0000 O   0  0  0  0  0  0  0  0  0  0  0  0
    3.6350    3.4440    0.0000 O   0  0  0  0  0  0  0  0  0  0  0  0
    0.5369    4.8100    0.0000 O   0  0  0  0  0  0  0  0  0  0  0  0
    0.9030    3.4440    0.0000 O   0  0  0  0  0  0  0  0  0  0  0  0
    2.6350    5.1760    0.0000 O   0  0  0  0  0  0  0  0  0  0  0  0
    1.9030    5.1760    0.0000 O   0  0  0  0  0  0  0  0  0  0  0  0
    2.2690    3.8100    0.0000 C   0  0  0  0  0  0  0  0  0  0  0  0
    2.8059    3.5000    0.0000 H   0  0  0  0  0  0  0  0  0  0  0  0
    1.7320    2.5000    0.0000 H   0  0  0  0  0  0  0  0  0  0  0  0
    4.5380    4.5000    0.0000 H   0  0  0  0  0  0  0  0  0  0  0  0
    4.2550    3.4440    0.0000 H   0  0  0  0  0  0  0  0  0  0  0  0
    0.0000    4.5000    0.0000 H   0  0  0  0  0  0  0  0  0  0  0  0
    0.2830    3.4440    0.0000 H   0  0  0  0  0  0  0  0  0  0  0  0
  2  5  1  0  0  0  0
  2  6  1  0  0  0  0
  2  9  2  0  0  0  0
  2 11  1  0  0  0  0
  3  7  1  0  0  0  0
  3  8  1  0  0  0  0
  3 10  2  0  0  0  0
  3 11  1  0  0  0  0
  4 11  1  0  0  0  0
  4 13  1  0  0  0  0
  5 14  1  0  0  0  0
  6 15  1  0  0  0  0
  7 16  1  0  0  0  0
  8 17  1  0  0  0  0
 11 12  1  0  0  0  0
M  ISO  1   1  99
M  END
> <PUBCHEM_COMPOUND_CID>
123801

> <PUBCHEM_COMPOUND_CANONICALIZED>
1

> <PUBCHEM_CACTVS_COMPLEXITY>
174

> <PUBCHEM_CACTVS_HBOND_ACCEPTOR>
7

> <PUBCHEM_CACTVS_HBOND_DONOR>
5

> <PUBCHEM_CACTVS_ROTATABLE_BOND>
2

> <PUBCHEM_CACTVS_SUBSKEYS>
AAADcYAAOAMAAAAAAAAAAAAAQAAAAAAAAAAAAAAAAAAAAAAAAAAAEggACCAAAAAAAAIAAAAAAhAAQAAAAIAAAAAAAAAAAAAAAAAAEAAAAAAAAAAAAAAAAAAAAAAAAAAAAAAAAAAAAAAAAAAAAAAAAAAAAA==

> <PUBCHEM_IUPAC_OPENEYE_NAME>
[hydroxy(phosphono)methyl]phosphonic acid;technetium-99

> <PUBCHEM_IUPAC_CAS_NAME>
[hydroxy(phosphono)methyl]phosphonic acid;technetium-99

> <PUBCHEM_IUPAC_NAME_MARKUP>
[hydroxy(phosphono)methyl]phosphonic acid;technetium-99

> <PUBCHEM_IUPAC_NAME>
[hydroxy(phosphono)methyl]phosphonic acid;technetium-99

> <PUBCHEM_IUPAC_SYSTEMATIC_NAME>
[oxidanyl(phosphono)methyl]phosphonic acid;technetium-99

> <PUBCHEM_IUPAC_TRADITIONAL_NAME>
[hydroxy(phosphono)methyl]phosphonic acid;technetium-99

> <PUBCHEM_IUPAC_INCHI>
InChI=1S/CH6O7P2.Tc/c2-1(9(3,4)5)10(6,7)8;/h1-2H,(H2,3,4,5)(H2,6,7,8);/i;1+1

> <PUBCHEM_IUPAC_INCHIKEY>
SIJNDWFHVBDXDY-IEOVAKBOSA-N

> <PUBCHEM_EXACT_MASS>
290.865126

> <PUBCHEM_MOLECULAR_FORMULA>
CH6O7P2Tc

> <PUBCHEM_MOLECULAR_WEIGHT>
290.91

> <PUBCHEM_OPENEYE_CAN_SMILES>
C(O)(P(=O)(O)O)P(=O)(O)O.[Tc]

> <PUBCHEM_OPENEYE_ISO_SMILES>
C(O)(P(=O)(O)O)P(=O)(O)O.[99Tc]

> <PUBCHEM_CACTVS_TPSA>
135

> <PUBCHEM_MONOISOTOPIC_WEIGHT>
290.865126

> <PUBCHEM_TOTAL_CHARGE>
0

> <PUBCHEM_HEAVY_ATOM_COUNT>
11

> <PUBCHEM_ATOM_DEF_STEREO_COUNT>
0

> <PUBCHEM_ATOM_UDEF_STEREO_COUNT>
0

> <PUBCHEM_BOND_DEF_STEREO_COUNT>
0

> <PUBCHEM_BOND_UDEF_STEREO_COUNT>
0

> <PUBCHEM_ISOTOPIC_ATOM_COUNT>
1

> <PUBCHEM_COMPONENT_COUNT>
2

> <PUBCHEM_CACTVS_TAUTO_COUNT>
1

> <PUBCHEM_COORDINATE_TYPE>
1
5
255

$$$$
