11430828
  -OEChem-12122310242D

 52 51  0     0  0  0  0  0  0999 V2000
    8.2700    3.8532    0.0000 Tc  2  0  0  0  0  0  0  0  0  0  0  0
    4.4618    4.7333    0.0000 O   0  0  0  0  0  0  0  0  0  0  0  0
    0.9059    7.6239    0.0000 O   0  0  0  0  0  0  0  0  0  0  0  0
    5.4879    7.5524    0.0000 O   0  0  0  0  0  0  0  0  0  0  0  0
    1.2066    5.9181    0.0000 O   0  0  0  0  0  0  0  0  0  0  0  0
    3.8603    8.1448    0.0000 O   0  0  0  0  0  0  0  0  0  0  0  0
    3.1350    3.6200    0.0000 N   0  0  0  0  0  0  0  0  0  0  0  0
    3.1763    6.2654    0.0000 N   0  0  0  0  0  0  0  0  0  0  0  0
    2.2690    2.1200    0.0000 C   0  0  0  0  0  0  0  0  0  0  0  0
    4.0010    2.1200    0.0000 C   0  0  0  0  0  0  0  0  0  0  0  0
    3.1350    2.6200    0.0000 C   0  0  0  0  0  0  0  0  0  0  0  0
    1.4030    2.6200    0.0000 C   0  0  0  0  0  0  0  0  0  0  0  0
    4.8671    2.6200    0.0000 C   0  0  0  0  0  0  0  0  0  0  0  0
    2.2690    1.1200    0.0000 C   0  0  0  0  0  0  0  0  0  0  0  0
    4.0010    1.1200    0.0000 C   0  0  0  0  0  0  0  0  0  0  0  0
    0.5369    2.1200    0.0000 C   0  0  0  0  0  0  0  0  0  0  0  0
    1.4030    3.6200    0.0000 C   0  0  0  0  0  0  0  0  0  0  0  0
    5.7331    2.1200    0.0000 C   0  0  0  0  0  0  0  0  0  0  0  0
    5.5098    3.3860    0.0000 C   0  0  0  0  0  0  0  0  0  0  0  0
    3.1350    0.6200    0.0000 C   0  0  0  0  0  0  0  0  0  0  0  0
    2.8342    5.3257    0.0000 C   0  0  0  0  0  0  0  0  0  0  0  0
    3.4770    4.5597    0.0000 C   0  0  0  0  0  0  0  0  0  0  0  0
    2.5335    7.0315    0.0000 C   0  0  0  0  0  0  0  0  0  0  0  0
    4.1611    6.4391    0.0000 C   0  0  0  0  0  0  0  0  0  0  0  0
    1.5487    6.8578    0.0000 C   0  0  0  0  0  0  0  0  0  0  0  0
    4.5031    7.3788    0.0000 C   0  0  0  0  0  0  0  0  0  0  0  0
    1.4030    2.0000    0.0000 H   0  0  0  0  0  0  0  0  0  0  0  0
    4.4685    3.0950    0.0000 H   0  0  0  0  0  0  0  0  0  0  0  0
    1.7320    0.8100    0.0000 H   0  0  0  0  0  0  0  0  0  0  0  0
    4.5380    0.8100    0.0000 H   0  0  0  0  0  0  0  0  0  0  0  0
    2.5981    3.9300    0.0000 H   0  0  0  0  0  0  0  0  0  0  0  0
    0.2269    2.6569    0.0000 H   0  0  0  0  0  0  0  0  0  0  0  0
    0.0000    1.8100    0.0000 H   0  0  0  0  0  0  0  0  0  0  0  0
    0.8469    1.5831    0.0000 H   0  0  0  0  0  0  0  0  0  0  0  0
    2.0230    3.6200    0.0000 H   0  0  0  0  0  0  0  0  0  0  0  0
    1.4030    4.2400    0.0000 H   0  0  0  0  0  0  0  0  0  0  0  0
    0.7830    3.6200    0.0000 H   0  0  0  0  0  0  0  0  0  0  0  0
    5.4231    1.5831    0.0000 H   0  0  0  0  0  0  0  0  0  0  0  0
    6.2700    1.8100    0.0000 H   0  0  0  0  0  0  0  0  0  0  0  0
    6.0431    2.6569    0.0000 H   0  0  0  0  0  0  0  0  0  0  0  0
    5.9848    2.9875    0.0000 H   0  0  0  0  0  0  0  0  0  0  0  0
    5.9084    3.8610    0.0000 H   0  0  0  0  0  0  0  0  0  0  0  0
    5.0349    3.7846    0.0000 H   0  0  0  0  0  0  0  0  0  0  0  0
    3.1350    0.0000    0.0000 H   0  0  0  0  0  0  0  0  0  0  0  0
    2.2973    5.6357    0.0000 H   0  0  0  0  0  0  0  0  0  0  0  0
    2.4357    4.8508    0.0000 H   0  0  0  0  0  0  0  0  0  0  0  0
    3.0704    7.3415    0.0000 H   0  0  0  0  0  0  0  0  0  0  0  0
    2.3214    7.6141    0.0000 H   0  0  0  0  0  0  0  0  0  0  0  0
    4.1611    5.8191    0.0000 H   0  0  0  0  0  0  0  0  0  0  0  0
    4.7716    6.3314    0.0000 H   0  0  0  0  0  0  0  0  0  0  0  0
    1.1179    8.2065    0.0000 H   0  0  0  0  0  0  0  0  0  0  0  0
    5.7000    8.1350    0.0000 H   0  0  0  0  0  0  0  0  0  0  0  0
  2 22  2  0  0  0  0
  3 25  1  0  0  0  0
  3 51  1  0  0  0  0
  4 26  1  0  0  0  0
  4 52  1  0  0  0  0
  5 25  2  0  0  0  0
  6 26  2  0  0  0  0
  7 11  1  0  0  0  0
  7 22  1  0  0  0  0
  7 31  1  0  0  0  0
  8 21  1  0  0  0  0
  8 23  1  0  0  0  0
  8 24  1  0  0  0  0
  9 11  2  0  0  0  0
  9 12  1  0  0  0  0
  9 14  1  0  0  0  0
 10 11  1  0  0  0  0
 10 13  1  0  0  0  0
 10 15  2  0  0  0  0
 12 16  1  0  0  0  0
 12 17  1  0  0  0  0
 12 27  1  0  0  0  0
 13 18  1  0  0  0  0
 13 19  1  0  0  0  0
 13 28  1  0  0  0  0
 14 20  2  0  0  0  0
 14 29  1  0  0  0  0
 15 20  1  0  0  0  0
 15 30  1  0  0  0  0
 16 32  1  0  0  0  0
 16 33  1  0  0  0  0
 16 34  1  0  0  0  0
 17 35  1  0  0  0  0
 17 36  1  0  0  0  0
 17 37  1  0  0  0  0
 18 38  1  0  0  0  0
 18 39  1  0  0  0  0
 18 40  1  0  0  0  0
 19 41  1  0  0  0  0
 19 42  1  0  0  0  0
 19 43  1  0  0  0  0
 20 44  1  0  0  0  0
 21 22  1  0  0  0  0
 21 45  1  0  0  0  0
 21 46  1  0  0  0  0
 23 25  1  0  0  0  0
 23 47  1  0  0  0  0
 23 48  1  0  0  0  0
 24 26  1  0  0  0  0
 24 49  1  0  0  0  0
 24 50  1  0  0  0  0
M  ISO  1   1  99
M  END
> <PUBCHEM_COMPOUND_CID>
11430828

> <PUBCHEM_COMPOUND_CANONICALIZED>
1

> <PUBCHEM_CACTVS_COMPLEXITY>
446

> <PUBCHEM_CACTVS_HBOND_ACCEPTOR>
6

> <PUBCHEM_CACTVS_HBOND_DONOR>
3

> <PUBCHEM_CACTVS_ROTATABLE_BOND>
9

> <PUBCHEM_CACTVS_SUBSKEYS>
AAADceB7OAAAAAAAAAAAAAAAQAAAAAAAAAAwAAAAAAAAAAABAAAAHgAQCAAADQjBmAQyyIPAAgCIAiXSWACCAAAhAAAIiACIRIgKYCLAkbGUIAhglADYyAcQgMAOgAACAAACAAAAAAQAAAQAAAAAAAAAAA==

> <PUBCHEM_IUPAC_OPENEYE_NAME>
2-[carboxymethyl-[2-(2,6-diisopropylanilino)-2-oxo-ethyl]amino]acetic acid;technetium-99

> <PUBCHEM_IUPAC_CAS_NAME>
2-[carboxymethyl-[2-[2,6-di(propan-2-yl)anilino]-2-oxoethyl]amino]acetic acid;technetium-99

> <PUBCHEM_IUPAC_NAME_MARKUP>
2-[carboxymethyl-[2-[2,6-di(propan-2-yl)anilino]-2-oxoethyl]amino]acetic acid;technetium-99

> <PUBCHEM_IUPAC_NAME>
2-[carboxymethyl-[2-[2,6-di(propan-2-yl)anilino]-2-oxoethyl]amino]acetic acid;technetium-99

> <PUBCHEM_IUPAC_SYSTEMATIC_NAME>
2-[[2-[[2,6-di(propan-2-yl)phenyl]amino]-2-oxidanylidene-ethyl]-(2-hydroxy-2-oxoethyl)amino]ethanoic acid;technetium-99

> <PUBCHEM_IUPAC_TRADITIONAL_NAME>
2-[carboxymethyl-[2-(2,6-diisopropylanilino)-2-keto-ethyl]amino]acetic acid;technetium-99

> <PUBCHEM_IUPAC_INCHI>
InChI=1S/C18H26N2O5.Tc/c1-11(2)13-6-5-7-14(12(3)4)18(13)19-15(21)8-20(9-16(22)23)10-17(24)25;/h5-7,11-12H,8-10H2,1-4H3,(H,19,21)(H,22,23)(H,24,25);/i;1+1

> <PUBCHEM_IUPAC_INCHIKEY>
JNJYQGLIZTUSCW-IEOVAKBOSA-N

> <PUBCHEM_EXACT_MASS>
449.090422

> <PUBCHEM_MOLECULAR_FORMULA>
C18H26N2O5Tc

> <PUBCHEM_MOLECULAR_WEIGHT>
449.3

> <PUBCHEM_OPENEYE_CAN_SMILES>
CC(C)C1=C(C(=CC=C1)C(C)C)NC(=O)CN(CC(=O)O)CC(=O)O.[Tc]

> <PUBCHEM_OPENEYE_ISO_SMILES>
CC(C)C1=C(C(=CC=C1)C(C)C)NC(=O)CN(CC(=O)O)CC(=O)O.[99Tc]

> <PUBCHEM_CACTVS_TPSA>
107

> <PUBCHEM_MONOISOTOPIC_WEIGHT>
449.090422

> <PUBCHEM_TOTAL_CHARGE>
0

> <PUBCHEM_HEAVY_ATOM_COUNT>
26

> <PUBCHEM_ATOM_DEF_STEREO_COUNT>
0

> <PUBCHEM_ATOM_UDEF_STEREO_COUNT>
0

> <PUBCHEM_BOND_DEF_STEREO_COUNT>
0

> <PUBCHEM_BOND_UDEF_STEREO_COUNT>
0

> <PUBCHEM_ISOTOPIC_ATOM_COUNT>
1

> <PUBCHEM_COMPONENT_COUNT>
2

> <PUBCHEM_CACTVS_TAUTO_COUNT>
-1

> <PUBCHEM_COORDINATE_TYPE>
1
5
255

> <PUBCHEM_BONDANNOTATIONS>
10  11  8
10  15  8
14  20  8
15  20  8
9  11  8
9  14  8

$$$$
