49800005
  -OEChem-12122310242D

 30 28  0     1  0  0  0  0  0999 V2000
    3.7510    0.0000    0.0000 Tc  2  0  0  0  0  0  0  0  0  0  0  0
    4.0010    2.8100    0.0000 O   0  0  0  0  0  0  0  0  0  0  0  0
    3.1350    5.3100    0.0000 O   0  0  0  0  0  0  0  0  0  0  0  0
    4.8671    5.3100    0.0000 O   0  0  0  0  0  0  0  0  0  0  0  0
    2.2690    2.8100    0.0000 O   0  0  0  0  0  0  0  0  0  0  0  0
    5.7331    2.8100    0.0000 O   0  0  0  0  0  0  0  0  0  0  0  0
    0.5369    3.8100    0.0000 O   0  0  0  0  0  0  0  0  0  0  0  0
    7.4651    3.8100    0.0000 O   0  0  0  0  0  0  0  0  0  0  0  0
    6.5991    5.3100    0.0000 O   0  0  0  0  0  0  0  0  0  0  0  0
    4.0010    3.8100    0.0000 C   0  0  1  0  0  0  0  0  0  0  0  0
    3.1350    4.3100    0.0000 C   0  0  1  0  0  0  0  0  0  0  0  0
    4.8671    4.3100    0.0000 C   0  0  2  0  0  0  0  0  0  0  0  0
    2.2690    3.8100    0.0000 C   0  0  1  0  0  0  0  0  0  0  0  0
    5.7331    3.8100    0.0000 C   0  0  2  0  0  0  0  0  0  0  0  0
    1.4030    4.3100    0.0000 C   0  0  0  0  0  0  0  0  0  0  0  0
    6.5991    4.3100    0.0000 C   0  0  0  0  0  0  0  0  0  0  0  0
    4.5380    3.5000    0.0000 H   0  0  0  0  0  0  0  0  0  0  0  0
    3.6720    4.6200    0.0000 H   0  0  0  0  0  0  0  0  0  0  0  0
    4.3301    4.6200    0.0000 H   0  0  0  0  0  0  0  0  0  0  0  0
    2.8059    3.5000    0.0000 H   0  0  0  0  0  0  0  0  0  0  0  0
    6.2700    3.5000    0.0000 H   0  0  0  0  0  0  0  0  0  0  0  0
    1.8015    4.7850    0.0000 H   0  0  0  0  0  0  0  0  0  0  0  0
    1.0044    4.7850    0.0000 H   0  0  0  0  0  0  0  0  0  0  0  0
    3.4641    2.5000    0.0000 H   0  0  0  0  0  0  0  0  0  0  0  0
    2.5981    5.6200    0.0000 H   0  0  0  0  0  0  0  0  0  0  0  0
    5.4040    5.6200    0.0000 H   0  0  0  0  0  0  0  0  0  0  0  0
    1.7320    2.5000    0.0000 H   0  0  0  0  0  0  0  0  0  0  0  0
    6.2700    2.5000    0.0000 H   0  0  0  0  0  0  0  0  0  0  0  0
    0.0000    4.1200    0.0000 H   0  0  0  0  0  0  0  0  0  0  0  0
    8.0021    4.1200    0.0000 H   0  0  0  0  0  0  0  0  0  0  0  0
 10  2  1  1  0  0  0
  2 24  1  0  0  0  0
 11  3  1  1  0  0  0
  3 25  1  0  0  0  0
 12  4  1  1  0  0  0
  4 26  1  0  0  0  0
 13  5  1  6  0  0  0
  5 27  1  0  0  0  0
 14  6  1  6  0  0  0
  6 28  1  0  0  0  0
  7 15  1  0  0  0  0
  7 29  1  0  0  0  0
  8 16  1  0  0  0  0
  8 30  1  0  0  0  0
  9 16  2  0  0  0  0
 10 11  1  0  0  0  0
 10 12  1  0  0  0  0
 10 17  1  0  0  0  0
 11 13  1  0  0  0  0
 11 18  1  0  0  0  0
 12 14  1  0  0  0  0
 12 19  1  0  0  0  0
 13 15  1  0  0  0  0
 13 20  1  0  0  0  0
 14 16  1  0  0  0  0
 14 21  1  0  0  0  0
 15 22  1  0  0  0  0
 15 23  1  0  0  0  0
M  ISO  1   1  99
M  END
> <PUBCHEM_COMPOUND_CID>
49800005

> <PUBCHEM_COMPOUND_CANONICALIZED>
1

> <PUBCHEM_CACTVS_COMPLEXITY>
207

> <PUBCHEM_CACTVS_HBOND_ACCEPTOR>
8

> <PUBCHEM_CACTVS_HBOND_DONOR>
7

> <PUBCHEM_CACTVS_ROTATABLE_BOND>
6

> <PUBCHEM_CACTVS_SUBSKEYS>
AAADccBgPAAAAAAAAAAAAAAAQAAAAAAAAAAAAAAAAAAAAAAAAAAAGgAACAAACBSggAIACAAAAgAIAACQCAIAAAAAAAAAAAFAAAABEBYAAAAAQAAFIAABAAHK7CTAAAAAAAAAAAAAAAAAAAAAAAAAAAAAAA==

> <PUBCHEM_IUPAC_OPENEYE_NAME>
(2R,3R,4S,5R,6R)-2,3,4,5,6,7-hexahydroxyheptanoic acid;technetium-99

> <PUBCHEM_IUPAC_CAS_NAME>
(2R,3R,4S,5R,6R)-2,3,4,5,6,7-hexahydroxyheptanoic acid;technetium-99

> <PUBCHEM_IUPAC_NAME_MARKUP>
(2<I>R</I>,3<I>R</I>,4<I>S</I>,5<I>R</I>,6<I>R</I>)-2,3,4,5,6,7-hexahydroxyheptanoic acid;technetium-99

> <PUBCHEM_IUPAC_NAME>
(2R,3R,4S,5R,6R)-2,3,4,5,6,7-hexahydroxyheptanoic acid;technetium-99

> <PUBCHEM_IUPAC_SYSTEMATIC_NAME>
(2R,3R,4S,5R,6R)-2,3,4,5,6,7-hexakis(oxidanyl)heptanoic acid;technetium-99

> <PUBCHEM_IUPAC_TRADITIONAL_NAME>
(2R,3R,4S,5R,6R)-2,3,4,5,6,7-hexahydroxyenanthic acid;technetium-99

> <PUBCHEM_IUPAC_INCHI>
InChI=1S/C7H14O8.Tc/c8-1-2(9)3(10)4(11)5(12)6(13)7(14)15;/h2-6,8-13H,1H2,(H,14,15);/t2-,3-,4+,5-,6-;/m1./s1/i;1+1

> <PUBCHEM_IUPAC_INCHIKEY>
FWONYTNJVVDALD-NEXMAILDSA-N

> <PUBCHEM_EXACT_MASS>
324.975117

> <PUBCHEM_MOLECULAR_FORMULA>
C7H14O8Tc

> <PUBCHEM_MOLECULAR_WEIGHT>
325.09

> <PUBCHEM_OPENEYE_CAN_SMILES>
C(C(C(C(C(C(C(=O)O)O)O)O)O)O)O.[Tc]

> <PUBCHEM_OPENEYE_ISO_SMILES>
C([C@H]([C@H]([C@@H]([C@H]([C@H](C(=O)O)O)O)O)O)O)O.[99Tc]

> <PUBCHEM_CACTVS_TPSA>
159

> <PUBCHEM_MONOISOTOPIC_WEIGHT>
324.975117

> <PUBCHEM_TOTAL_CHARGE>
0

> <PUBCHEM_HEAVY_ATOM_COUNT>
16

> <PUBCHEM_ATOM_DEF_STEREO_COUNT>
5

> <PUBCHEM_ATOM_UDEF_STEREO_COUNT>
0

> <PUBCHEM_BOND_DEF_STEREO_COUNT>
0

> <PUBCHEM_BOND_UDEF_STEREO_COUNT>
0

> <PUBCHEM_ISOTOPIC_ATOM_COUNT>
1

> <PUBCHEM_COMPONENT_COUNT>
2

> <PUBCHEM_CACTVS_TAUTO_COUNT>
-1

> <PUBCHEM_COORDINATE_TYPE>
1
5
255

> <PUBCHEM_BONDANNOTATIONS>
10  2  5
11  3  5
12  4  5
13  5  6
14  6  6

$$$$
