26476
  -OEChem-12122310272D

  1  0  0     0  0  0  0  0  0999 V2000
    2.0000    0.0000    0.0000 Tc  2  0  0  0  0  0  0  0  0  0  0  0
M  ISO  1   1  99
M  END
> <PUBCHEM_COMPOUND_CID>
26476

> <PUBCHEM_COMPOUND_CANONICALIZED>
1

> <PUBCHEM_CACTVS_COMPLEXITY>
0

> <PUBCHEM_CACTVS_HBOND_ACCEPTOR>
0

> <PUBCHEM_CACTVS_HBOND_DONOR>
0

> <PUBCHEM_CACTVS_ROTATABLE_BOND>
0

> <PUBCHEM_CACTVS_SUBSKEYS>
AAADcQAAAAAAAAAAAAAAAAAAQAAAAAAAAAAAAAAAAAAAAAAAAAAAAAAAAAAAAAAAAAAAAAAAAAAAAAAAAAAAAAAAAAAAAAAAAAAAAAAAAAAAAAAAAAAAAAAAAAAAAAAAAAAAAAAAAAAAAAAAAAAAAAAAAA==

> <PUBCHEM_IUPAC_OPENEYE_NAME>
technetium-99

> <PUBCHEM_IUPAC_CAS_NAME>
technetium-99

> <PUBCHEM_IUPAC_NAME_MARKUP>
technetium-99

> <PUBCHEM_IUPAC_NAME>
technetium-99

> <PUBCHEM_IUPAC_SYSTEMATIC_NAME>
technetium-99

> <PUBCHEM_IUPAC_TRADITIONAL_NAME>
technetium-99

> <PUBCHEM_IUPAC_INCHI>
InChI=1S/Tc/i1+1

> <PUBCHEM_IUPAC_INCHIKEY>
GKLVYJBZJHMRIY-OUBTZVSYSA-N

> <PUBCHEM_EXACT_MASS>
98.906250

> <PUBCHEM_MOLECULAR_FORMULA>
Tc

> <PUBCHEM_MOLECULAR_WEIGHT>
98.906250

> <PUBCHEM_OPENEYE_CAN_SMILES>
[Tc]

> <PUBCHEM_OPENEYE_ISO_SMILES>
[99Tc]

> <PUBCHEM_CACTVS_TPSA>
0

> <PUBCHEM_MONOISOTOPIC_WEIGHT>
98.906250

> <PUBCHEM_TOTAL_CHARGE>
0

> <PUBCHEM_HEAVY_ATOM_COUNT>
1

> <PUBCHEM_ATOM_DEF_STEREO_COUNT>
0

> <PUBCHEM_ATOM_UDEF_STEREO_COUNT>
0

> <PUBCHEM_BOND_DEF_STEREO_COUNT>
0

> <PUBCHEM_BOND_UDEF_STEREO_COUNT>
0

> <PUBCHEM_ISOTOPIC_ATOM_COUNT>
1

> <PUBCHEM_COMPONENT_COUNT>
1

> <PUBCHEM_CACTVS_TAUTO_COUNT>
1

> <PUBCHEM_COORDINATE_TYPE>
1
5
255

$$$$
