86278204
  -OEChem-12122310242D

 27 20  0     0  0  0  0  0  0999 V2000
    5.0000    1.5490    0.0000 Tc  2  0  0  0  0  0  0  0  0  0  0  0
    5.0000   -0.1830    0.0000 P   0  0  0  0  0  0  0  0  0  0  0  0
    5.0000   -1.9151    0.0000 P   0  0  0  0  0  0  0  0  0  0  0  0
    6.7320    1.5490    0.0000 P   0  0  0  0  0  0  0  0  0  0  0  0
    3.5000    2.4151    0.0000 P   0  0  0  0  0  0  0  0  0  0  0  0
    6.7320   -0.1830    0.0000 Na  0  3  0  0  0  0  0  0  0  0  0  0
    4.1340   -3.4151    0.0000 Na  0  3  0  0  0  0  0  0  0  0  0  0
    6.5000   -2.7811    0.0000 Na  0  3  0  0  0  0  0  0  0  0  0  0
    2.0000    3.2811    0.0000 Na  0  3  0  0  0  0  0  0  0  0  0  0
    5.5000    0.6830    0.0000 O   0  5  0  0  0  0  0  0  0  0  0  0
    5.8660   -0.6830    0.0000 O   0  5  0  0  0  0  0  0  0  0  0  0
    4.1340   -2.4151    0.0000 O   0  5  0  0  0  0  0  0  0  0  0  0
    5.5000   -2.7811    0.0000 O   0  5  0  0  0  0  0  0  0  0  0  0
    5.8660    2.0490    0.0000 O   0  5  0  0  0  0  0  0  0  0  0  0
    4.1340    1.0490    0.0000 O   0  5  0  0  0  0  0  0  0  0  0  0
    4.5000    2.4151    0.0000 O   0  5  0  0  0  0  0  0  0  0  0  0
    2.5000    2.4151    0.0000 O   0  5  0  0  0  0  0  0  0  0  0  0
    4.1340    0.3170    0.0000 O   0  0  0  0  0  0  0  0  0  0  0  0
    5.8660   -1.4151    0.0000 O   0  0  0  0  0  0  0  0  0  0  0  0
    7.2320    2.4151    0.0000 O   0  0  0  0  0  0  0  0  0  0  0  0
    3.5000    3.4151    0.0000 O   0  0  0  0  0  0  0  0  0  0  0  0
    4.5000   -1.0490    0.0000 C   0  0  0  0  0  0  0  0  0  0  0  0
    7.5981    1.0490    0.0000 C   0  0  0  0  0  0  0  0  0  0  0  0
    4.0250   -0.6505    0.0000 H   0  0  0  0  0  0  0  0  0  0  0  0
    4.0250   -1.4476    0.0000 H   0  0  0  0  0  0  0  0  0  0  0  0
    7.6813    0.4346    0.0000 H   0  0  0  0  0  0  0  0  0  0  0  0
    8.1130    1.3944    0.0000 H   0  0  0  0  0  0  0  0  0  0  0  0
  2 10  1  0  0  0  0
  2 11  1  0  0  0  0
  2 18  2  0  0  0  0
  2 22  1  0  0  0  0
  3 12  1  0  0  0  0
  3 13  1  0  0  0  0
  3 19  2  0  0  0  0
  3 22  1  0  0  0  0
  4 14  1  0  0  0  0
  4 15  1  0  0  0  0
  4 20  2  0  0  0  0
  4 23  1  0  0  0  0
  5 16  1  0  0  0  0
  5 17  1  0  0  0  0
  5 21  2  0  0  0  0
  5 23  1  0  0  0  0
 22 24  1  0  0  0  0
 22 25  1  0  0  0  0
 23 26  1  0  0  0  0
 23 27  1  0  0  0  0
M  CHG  8   1   4   6   1   7   1   8   1   9   1  10  -1  11  -1  12  -1
M  CHG  5  13  -1  14  -1  15  -1  16  -1  17  -1
M  ISO  1   1  99
M  END
> <PUBCHEM_COMPOUND_CID>
86278204

> <PUBCHEM_COMPOUND_CANONICALIZED>
1

> <PUBCHEM_CACTVS_COMPLEXITY>
129

> <PUBCHEM_CACTVS_HBOND_ACCEPTOR>
12

> <PUBCHEM_CACTVS_HBOND_DONOR>
0

> <PUBCHEM_CACTVS_ROTATABLE_BOND>
0

> <PUBCHEM_CACTVS_SUBSKEYS>
AAADcYBAPDOAAAAAAAAAAAAAQAAAAAAAAAAAAAAAAAAAAAAAAAAAEAgAACAAAAAAAAAAAAAAABAAQAAAAIAAAAAAAAAAAAAAAAAAAAAAAAAAAAAAAAAAAAAAAAAAAAAAAAAAAAAAAAAAAAAAAAAAAAAAAA==

> <PUBCHEM_IUPAC_OPENEYE_NAME>
tetrasodium;dioxido-oxo-(phosphonatomethyl)-lambda5-phosphane;technetium-99(4+)

> <PUBCHEM_IUPAC_CAS_NAME>
tetrasodium;dioxido-oxo-(phosphonatomethyl)phosphorane;technetium-99(4+)

> <PUBCHEM_IUPAC_NAME_MARKUP>
tetrasodium;dioxido-oxo-(phosphonatomethyl)-&lambda;<SUP>5</SUP>-phosphane;technetium-99(4+)

> <PUBCHEM_IUPAC_NAME>
tetrasodium;dioxido-oxo-(phosphonatomethyl)-lambda5-phosphane;technetium-99(4+)

> <PUBCHEM_IUPAC_SYSTEMATIC_NAME>
tetrasodium;bis(oxidanidyl)-oxidanylidene-(phosphonatomethyl)-lambda5-phosphane;technetium-99(4+)

> <PUBCHEM_IUPAC_TRADITIONAL_NAME>
tetrasodium;keto-dioxido-(phosphonatomethyl)phosphorane;technetium-99(4+)

> <PUBCHEM_IUPAC_INCHI>
InChI=1S/2CH6O6P2.4Na.Tc/c2*2-8(3,4)1-9(5,6)7;;;;;/h2*1H2,(H2,2,3,4)(H2,5,6,7);;;;;/q;;4*+1;+4/p-8/i;;;;;;1+1

> <PUBCHEM_IUPAC_INCHIKEY>
AXNBRPOESGBANA-KTTJZPQESA-F

> <PUBCHEM_EXACT_MASS>
534.730650

> <PUBCHEM_MOLECULAR_FORMULA>
C2H4Na4O12P4Tc

> <PUBCHEM_MOLECULAR_WEIGHT>
534.81

> <PUBCHEM_OPENEYE_CAN_SMILES>
C(P(=O)([O-])[O-])P(=O)([O-])[O-].C(P(=O)([O-])[O-])P(=O)([O-])[O-].[Na+].[Na+].[Na+].[Na+].[Tc+4]

> <PUBCHEM_OPENEYE_ISO_SMILES>
C(P(=O)([O-])[O-])P(=O)([O-])[O-].C(P(=O)([O-])[O-])P(=O)([O-])[O-].[Na+].[Na+].[Na+].[Na+].[99Tc+4]

> <PUBCHEM_CACTVS_TPSA>
253

> <PUBCHEM_MONOISOTOPIC_WEIGHT>
534.730650

> <PUBCHEM_TOTAL_CHARGE>
0

> <PUBCHEM_HEAVY_ATOM_COUNT>
23

> <PUBCHEM_ATOM_DEF_STEREO_COUNT>
0

> <PUBCHEM_ATOM_UDEF_STEREO_COUNT>
0

> <PUBCHEM_BOND_DEF_STEREO_COUNT>
0

> <PUBCHEM_BOND_UDEF_STEREO_COUNT>
0

> <PUBCHEM_ISOTOPIC_ATOM_COUNT>
1

> <PUBCHEM_COMPONENT_COUNT>
7

> <PUBCHEM_CACTVS_TAUTO_COUNT>
1

> <PUBCHEM_COORDINATE_TYPE>
1
5
255

$$$$
