76957057
  -OEChem-12122310252D

  9  8  0     0  0  0  0  0  0999 V2000
    0.9571    0.0000    0.0000 Tc  2  0  0  0  0  0  0  0  0  0  0  0
    1.7071    2.5000    0.0000 S   0  0  0  0  0  0  0  0  0  0  0  0
    0.7071    2.5000    0.0000 S   0  0  0  0  0  0  0  0  0  0  0  0
    2.4142    3.2071    0.0000 S   0  0  0  0  0  0  0  0  0  0  0  0
    0.0000    3.2071    0.0000 S   0  0  0  0  0  0  0  0  0  0  0  0
    2.4142    4.2071    0.0000 S   0  0  0  0  0  0  0  0  0  0  0  0
    0.0000    4.2071    0.0000 S   0  0  0  0  0  0  0  0  0  0  0  0
    1.7071    4.9142    0.0000 S   0  0  0  0  0  0  0  0  0  0  0  0
    0.7071    4.9142    0.0000 S   0  0  0  0  0  0  0  0  0  0  0  0
  2  3  1  0  0  0  0
  2  4  1  0  0  0  0
  3  5  1  0  0  0  0
  4  6  1  0  0  0  0
  5  7  1  0  0  0  0
  6  8  1  0  0  0  0
  7  9  1  0  0  0  0
  8  9  1  0  0  0  0
M  ISO  1   1  99
M  END
> <PUBCHEM_COMPOUND_CID>
76957057

> <PUBCHEM_COMPOUND_CANONICALIZED>
1

> <PUBCHEM_CACTVS_COMPLEXITY>
24

> <PUBCHEM_CACTVS_HBOND_ACCEPTOR>
8

> <PUBCHEM_CACTVS_HBOND_DONOR>
0

> <PUBCHEM_CACTVS_ROTATABLE_BOND>
0

> <PUBCHEM_CACTVS_SUBSKEYS>
AAADcQAAAAB4AAAAAAAAAAAAQAAAAAAAAAAAAAAAAAASAAAAAAAAAAAAAAAAAAAAAAAAAAAAAAAAAAAAAAAAAAAAAAAAAAAAAAAAAAAAAAAAAAAAAAAAAAAAAAAAAAAAAAAAAAAAAAAAAAAAAAAAAAAAAA==

> <PUBCHEM_IUPAC_OPENEYE_NAME>
octathiocane;technetium-99

> <PUBCHEM_IUPAC_CAS_NAME>
octathiocane;technetium-99

> <PUBCHEM_IUPAC_NAME_MARKUP>
octathiocane;technetium-99

> <PUBCHEM_IUPAC_NAME>
octathiocane;technetium-99

> <PUBCHEM_IUPAC_SYSTEMATIC_NAME>
1,2,3,4,5,6,7,8-octathiocane;technetium-99

> <PUBCHEM_IUPAC_TRADITIONAL_NAME>
octathiocane;technetium-99

> <PUBCHEM_IUPAC_INCHI>
InChI=1S/S8.Tc/c1-2-4-6-8-7-5-3-1;/i;1+1

> <PUBCHEM_IUPAC_INCHIKEY>
FJTPHHNWVXNMEK-IEOVAKBOSA-N

> <PUBCHEM_EXACT_MASS>
354.682819

> <PUBCHEM_MOLECULAR_FORMULA>
S8Tc

> <PUBCHEM_MOLECULAR_WEIGHT>
355.4

> <PUBCHEM_OPENEYE_CAN_SMILES>
S1SSSSSSS1.[Tc]

> <PUBCHEM_OPENEYE_ISO_SMILES>
S1SSSSSSS1.[99Tc]

> <PUBCHEM_CACTVS_TPSA>
202

> <PUBCHEM_MONOISOTOPIC_WEIGHT>
354.682819

> <PUBCHEM_TOTAL_CHARGE>
0

> <PUBCHEM_HEAVY_ATOM_COUNT>
9

> <PUBCHEM_ATOM_DEF_STEREO_COUNT>
0

> <PUBCHEM_ATOM_UDEF_STEREO_COUNT>
0

> <PUBCHEM_BOND_DEF_STEREO_COUNT>
0

> <PUBCHEM_BOND_UDEF_STEREO_COUNT>
0

> <PUBCHEM_ISOTOPIC_ATOM_COUNT>
1

> <PUBCHEM_COMPONENT_COUNT>
2

> <PUBCHEM_CACTVS_TAUTO_COUNT>
-1

> <PUBCHEM_COORDINATE_TYPE>
1
5
255

$$$$
