23709079
  -OEChem-04222422412D

 86 86  0     1  0  0  0  0  0999 V2000
    2.2690    2.1200    0.0000 S   0  0  0  0  0  0  0  0  0  0  0  0
    0.2990    9.8658    0.0000 Na  0  3  0  0  0  0  0  0  0  0  0  0
    1.7690    2.9860    0.0000 O   0  0  0  0  0  0  0  0  0  0  0  0
    2.7690    1.2540    0.0000 O   0  0  0  0  0  0  0  0  0  0  0  0
    8.1592   11.3899    0.0000 O   0  0  0  0  0  0  0  0  0  0  0  0
    1.1650    9.3658    0.0000 O   0  5  0  0  0  0  0  0  0  0  0  0
    2.0310   10.8658    0.0000 O   0  0  0  0  0  0  0  0  0  0  0  0
    2.7671   15.5284    0.0000 O   0  0  0  0  0  0  0  0  0  0  0  0
    7.0972   15.0284    0.0000 O   0  0  0  0  0  0  0  0  0  0  0  0
    3.6331   14.0284    0.0000 O   0  0  0  0  0  0  0  0  0  0  0  0
    6.2312   16.5284    0.0000 O   0  0  0  0  0  0  0  0  0  0  0  0
    6.6793    0.8153    0.0000 N   0  0  0  0  0  0  0  0  0  0  0  0
    8.2791    4.5320    0.0000 N   0  0  0  0  0  0  0  0  0  0  0  0
    1.4030    1.6200    0.0000 N   0  0  0  0  0  0  0  0  0  0  0  0
    6.6793    2.4247    0.0000 C   0  0  0  0  0  0  0  0  0  0  0  0
    5.7331    2.1200    0.0000 C   0  0  0  0  0  0  0  0  0  0  0  0
    6.9900    3.3752    0.0000 C   0  0  0  0  0  0  0  0  0  0  0  0
    5.7331    1.1200    0.0000 C   0  0  0  0  0  0  0  0  0  0  0  0
    4.0010    2.1200    0.0000 C   0  0  0  0  0  0  0  0  0  0  0  0
    7.9685    3.5815    0.0000 C   0  0  0  0  0  0  0  0  0  0  0  0
    4.8671    2.6200    0.0000 C   0  0  0  0  0  0  0  0  0  0  0  0
    7.2629    1.6200    0.0000 C   0  0  0  0  0  0  0  0  0  0  0  0
    3.1350    2.6200    0.0000 C   0  0  0  0  0  0  0  0  0  0  0  0
    4.8671    0.6200    0.0000 C   0  0  0  0  0  0  0  0  0  0  0  0
    4.0010    1.1200    0.0000 C   0  0  0  0  0  0  0  0  0  0  0  0
    9.2576    4.7382    0.0000 C   0  0  0  0  0  0  0  0  0  0  0  0
    7.6113    5.2763    0.0000 C   0  0  0  0  0  0  0  0  0  0  0  0
    3.7631    9.8658    0.0000 C   0  0  0  0  0  0  0  0  0  0  0  0
    2.8971    9.3658    0.0000 C   0  0  2  0  0  0  0  0  0  0  0  0
    5.4952    9.8658    0.0000 C   0  0  0  0  0  0  0  0  0  0  0  0
    5.4952   10.8658    0.0000 C   0  0  0  0  0  0  0  0  0  0  0  0
    4.6291    9.3658    0.0000 C   0  0  0  0  0  0  0  0  0  0  0  0
    3.7631   10.8658    0.0000 C   0  0  0  0  0  0  0  0  0  0  0  0
    4.6291   11.3658    0.0000 C   0  0  0  0  0  0  0  0  0  0  0  0
    0.5369    2.1200    0.0000 C   0  0  0  0  0  0  0  0  0  0  0  0
    2.8971    8.3658    0.0000 C   0  0  0  0  0  0  0  0  0  0  0  0
    6.3891    9.3311    0.0000 C   0  0  0  0  0  0  0  0  0  0  0  0
    6.3891   11.4004    0.0000 C   0  0  0  0  0  0  0  0  0  0  0  0
    2.0310    9.8658    0.0000 C   0  0  0  0  0  0  0  0  0  0  0  0
    7.2952   10.8866    0.0000 C   0  0  0  0  0  0  0  0  0  0  0  0
    7.2952    9.8450    0.0000 C   0  0  0  0  0  0  0  0  0  0  0  0
    9.0272   10.8933    0.0000 C   0  0  0  0  0  0  0  0  0  0  0  0
    4.4992   15.5284    0.0000 C   0  0  0  0  0  0  0  0  0  0  0  0
    5.3652   15.0284    0.0000 C   0  0  0  0  0  0  0  0  0  0  0  0
    3.6331   15.0284    0.0000 C   0  0  0  0  0  0  0  0  0  0  0  0
    6.2312   15.5284    0.0000 C   0  0  0  0  0  0  0  0  0  0  0  0
    6.9694    3.9949    0.0000 H   0  0  0  0  0  0  0  0  0  0  0  0
    6.3762    3.4626    0.0000 H   0  0  0  0  0  0  0  0  0  0  0  0
    7.9890    2.9618    0.0000 H   0  0  0  0  0  0  0  0  0  0  0  0
    8.5823    3.4941    0.0000 H   0  0  0  0  0  0  0  0  0  0  0  0
    4.8671    3.2400    0.0000 H   0  0  0  0  0  0  0  0  0  0  0  0
    7.8829    1.6200    0.0000 H   0  0  0  0  0  0  0  0  0  0  0  0
    6.8719    0.2259    0.0000 H   0  0  0  0  0  0  0  0  0  0  0  0
    3.5335    3.0950    0.0000 H   0  0  0  0  0  0  0  0  0  0  0  0
    2.7365    3.0950    0.0000 H   0  0  0  0  0  0  0  0  0  0  0  0
    4.8671    0.0000    0.0000 H   0  0  0  0  0  0  0  0  0  0  0  0
    3.4641    0.8100    0.0000 H   0  0  0  0  0  0  0  0  0  0  0  0
    9.3855    4.1315    0.0000 H   0  0  0  0  0  0  0  0  0  0  0  0
    9.8643    4.8661    0.0000 H   0  0  0  0  0  0  0  0  0  0  0  0
    9.1298    5.3449    0.0000 H   0  0  0  0  0  0  0  0  0  0  0  0
    8.0728    5.6904    0.0000 H   0  0  0  0  0  0  0  0  0  0  0  0
    7.1972    5.7378    0.0000 H   0  0  0  0  0  0  0  0  0  0  0  0
    7.1498    4.8622    0.0000 H   0  0  0  0  0  0  0  0  0  0  0  0
    1.4030    1.0000    0.0000 H   0  0  0  0  0  0  0  0  0  0  0  0
    2.3601    9.0558    0.0000 H   0  0  0  0  0  0  0  0  0  0  0  0
    4.6291    8.7458    0.0000 H   0  0  0  0  0  0  0  0  0  0  0  0
    3.2262   11.1758    0.0000 H   0  0  0  0  0  0  0  0  0  0  0  0
    4.6291   11.9858    0.0000 H   0  0  0  0  0  0  0  0  0  0  0  0
    0.8469    2.6569    0.0000 H   0  0  0  0  0  0  0  0  0  0  0  0
    0.0000    2.4300    0.0000 H   0  0  0  0  0  0  0  0  0  0  0  0
    0.2269    1.5831    0.0000 H   0  0  0  0  0  0  0  0  0  0  0  0
    2.2771    8.3658    0.0000 H   0  0  0  0  0  0  0  0  0  0  0  0
    2.8971    7.7458    0.0000 H   0  0  0  0  0  0  0  0  0  0  0  0
    3.5171    8.3658    0.0000 H   0  0  0  0  0  0  0  0  0  0  0  0
    6.3819    8.7112    0.0000 H   0  0  0  0  0  0  0  0  0  0  0  0
    6.3819   12.0204    0.0000 H   0  0  0  0  0  0  0  0  0  0  0  0
    7.8309    9.5329    0.0000 H   0  0  0  0  0  0  0  0  0  0  0  0
    8.7193   10.3551    0.0000 H   0  0  0  0  0  0  0  0  0  0  0  0
    9.5653   10.5853    0.0000 H   0  0  0  0  0  0  0  0  0  0  0  0
    9.3351   11.4314    0.0000 H   0  0  0  0  0  0  0  0  0  0  0  0
    4.8977   16.0034    0.0000 H   0  0  0  0  0  0  0  0  0  0  0  0
    4.1006   16.0034    0.0000 H   0  0  0  0  0  0  0  0  0  0  0  0
    4.9666   14.5535    0.0000 H   0  0  0  0  0  0  0  0  0  0  0  0
    5.7637   14.5535    0.0000 H   0  0  0  0  0  0  0  0  0  0  0  0
    2.2302   15.2184    0.0000 H   0  0  0  0  0  0  0  0  0  0  0  0
    7.6342   15.3384    0.0000 H   0  0  0  0  0  0  0  0  0  0  0  0
  1  3  2  0  0  0  0
  1  4  2  0  0  0  0
  1 14  1  0  0  0  0
  1 23  1  0  0  0  0
  5 40  1  0  0  0  0
  5 42  1  0  0  0  0
  6 39  1  0  0  0  0
  7 39  2  0  0  0  0
  8 45  1  0  0  0  0
  8 85  1  0  0  0  0
  9 46  1  0  0  0  0
  9 86  1  0  0  0  0
 10 45  2  0  0  0  0
 11 46  2  0  0  0  0
 12 18  1  0  0  0  0
 12 22  1  0  0  0  0
 12 53  1  0  0  0  0
 13 20  1  0  0  0  0
 13 26  1  0  0  0  0
 13 27  1  0  0  0  0
 14 35  1  0  0  0  0
 14 64  1  0  0  0  0
 15 16  1  0  0  0  0
 15 17  1  0  0  0  0
 15 22  2  0  0  0  0
 16 18  2  0  0  0  0
 16 21  1  0  0  0  0
 17 20  1  0  0  0  0
 17 47  1  0  0  0  0
 17 48  1  0  0  0  0
 18 24  1  0  0  0  0
 19 21  2  0  0  0  0
 19 23  1  0  0  0  0
 19 25  1  0  0  0  0
 20 49  1  0  0  0  0
 20 50  1  0  0  0  0
 21 51  1  0  0  0  0
 22 52  1  0  0  0  0
 23 54  1  0  0  0  0
 23 55  1  0  0  0  0
 24 25  2  0  0  0  0
 24 56  1  0  0  0  0
 25 57  1  0  0  0  0
 26 58  1  0  0  0  0
 26 59  1  0  0  0  0
 26 60  1  0  0  0  0
 27 61  1  0  0  0  0
 27 62  1  0  0  0  0
 27 63  1  0  0  0  0
 28 29  1  0  0  0  0
 28 32  2  0  0  0  0
 28 33  1  0  0  0  0
 29 36  1  6  0  0  0
 29 39  1  0  0  0  0
 29 65  1  0  0  0  0
 30 31  2  0  0  0  0
 30 32  1  0  0  0  0
 30 37  1  0  0  0  0
 31 34  1  0  0  0  0
 31 38  1  0  0  0  0
 32 66  1  0  0  0  0
 33 34  2  0  0  0  0
 33 67  1  0  0  0  0
 34 68  1  0  0  0  0
 35 69  1  0  0  0  0
 35 70  1  0  0  0  0
 35 71  1  0  0  0  0
 36 72  1  0  0  0  0
 36 73  1  0  0  0  0
 36 74  1  0  0  0  0
 37 41  2  0  0  0  0
 37 75  1  0  0  0  0
 38 40  2  0  0  0  0
 38 76  1  0  0  0  0
 40 41  1  0  0  0  0
 41 77  1  0  0  0  0
 42 78  1  0  0  0  0
 42 79  1  0  0  0  0
 42 80  1  0  0  0  0
 43 44  1  0  0  0  0
 43 45  1  0  0  0  0
 43 81  1  0  0  0  0
 43 82  1  0  0  0  0
 44 46  1  0  0  0  0
 44 83  1  0  0  0  0
 44 84  1  0  0  0  0
M  CHG  2   2   1   6  -1
M  END
> <PUBCHEM_COMPOUND_CID>
23709079

> <PUBCHEM_COMPOUND_CANONICALIZED>
1

> <PUBCHEM_CACTVS_COMPLEXITY>
780

> <PUBCHEM_CACTVS_HBOND_ACCEPTOR>
11

> <PUBCHEM_CACTVS_HBOND_DONOR>
4

> <PUBCHEM_CACTVS_ROTATABLE_BOND>
12

> <PUBCHEM_CACTVS_SUBSKEYS>
AAADcfB/PCBAAAAAAAAAAAAAAAAAAWAAAAAwYMAAAAAAAFjB9AAAHgQQSAAADQzF3ga+zvPJlgKoAzT3THDCiCAxIiAI2aE+bJgMJvLEtZuEcChk0BHI6AfbyPCO6AADAAASAADQAAYAACQAAAAAAAAAAA==

> <PUBCHEM_IUPAC_OPENEYE_NAME>
sodium;1-[3-[2-(dimethylamino)ethyl]-1H-indol-5-yl]-N-methyl-methanesulfonamide;(2S)-2-(6-methoxy-2-naphthyl)propanoate;succinic acid

> <PUBCHEM_IUPAC_CAS_NAME>
sodium;butanedioic acid;1-[3-[2-(dimethylamino)ethyl]-1H-indol-5-yl]-N-methylmethanesulfonamide;(2S)-2-(6-methoxy-2-naphthalenyl)propanoate

> <PUBCHEM_IUPAC_NAME_MARKUP>
sodium;butanedioic acid;1-[3-[2-(dimethylamino)ethyl]-1<I>H</I>-indol-5-yl]-<I>N</I>-methylmethanesulfonamide;(2<I>S</I>)-2-(6-methoxynaphthalen-2-yl)propanoate

> <PUBCHEM_IUPAC_NAME>
sodium;butanedioic acid;1-[3-[2-(dimethylamino)ethyl]-1H-indol-5-yl]-N-methylmethanesulfonamide;(2S)-2-(6-methoxynaphthalen-2-yl)propanoate

> <PUBCHEM_IUPAC_SYSTEMATIC_NAME>
sodium;butanedioic acid;1-[3-[2-(dimethylamino)ethyl]-1H-indol-5-yl]-N-methyl-methanesulfonamide;(2S)-2-(6-methoxynaphthalen-2-yl)propanoate

> <PUBCHEM_IUPAC_TRADITIONAL_NAME>
sodium;1-[3-[2-(dimethylamino)ethyl]-1H-indol-5-yl]-N-methyl-methanesulfonamide;(2S)-2-(6-methoxy-2-naphthyl)propionate;succinic acid

> <PUBCHEM_IUPAC_INCHI>
InChI=1S/C14H21N3O2S.C14H14O3.C4H6O4.Na/c1-15-20(18,19)10-11-4-5-14-13(8-11)12(9-16-14)6-7-17(2)3;1-9(14(15)16)10-3-4-12-8-13(17-2)6-5-11(12)7-10;5-3(6)1-2-4(7)8;/h4-5,8-9,15-16H,6-7,10H2,1-3H3;3-9H,1-2H3,(H,15,16);1-2H2,(H,5,6)(H,7,8);/q;;;+1/p-1/t;9-;;/m.0../s1

> <PUBCHEM_IUPAC_INCHIKEY>
IGRAQVLKCQVBQA-DBQHITQZSA-M

> <PUBCHEM_EXACT_MASS>
665.23829532

> <PUBCHEM_MOLECULAR_FORMULA>
C32H40N3NaO9S

> <PUBCHEM_MOLECULAR_WEIGHT>
665.7

> <PUBCHEM_OPENEYE_CAN_SMILES>
CC(C1=CC2=C(C=C1)C=C(C=C2)OC)C(=O)[O-].CNS(=O)(=O)CC1=CC2=C(C=C1)NC=C2CCN(C)C.C(CC(=O)O)C(=O)O.[Na+]

> <PUBCHEM_OPENEYE_ISO_SMILES>
C[C@@H](C1=CC2=C(C=C1)C=C(C=C2)OC)C(=O)[O-].CNS(=O)(=O)CC1=CC2=C(C=C1)NC=C2CCN(C)C.C(CC(=O)O)C(=O)O.[Na+]

> <PUBCHEM_CACTVS_TPSA>
198

> <PUBCHEM_MONOISOTOPIC_WEIGHT>
665.23829532

> <PUBCHEM_TOTAL_CHARGE>
0

> <PUBCHEM_HEAVY_ATOM_COUNT>
46

> <PUBCHEM_ATOM_DEF_STEREO_COUNT>
1

> <PUBCHEM_ATOM_UDEF_STEREO_COUNT>
0

> <PUBCHEM_BOND_DEF_STEREO_COUNT>
0

> <PUBCHEM_BOND_UDEF_STEREO_COUNT>
0

> <PUBCHEM_ISOTOPIC_ATOM_COUNT>
0

> <PUBCHEM_COMPONENT_COUNT>
4

> <PUBCHEM_CACTVS_TAUTO_COUNT>
-1

> <PUBCHEM_NONSTANDARDBOND>
2  6  7

> <PUBCHEM_COORDINATE_TYPE>
1
5
255

> <PUBCHEM_BONDANNOTATIONS>
12  18  8
12  22  8
15  16  8
15  22  8
16  18  8
16  21  8
18  24  8
19  21  8
19  25  8
24  25  8
28  32  8
28  33  8
29  36  6
30  31  8
30  32  8
30  37  8
31  34  8
31  38  8
33  34  8
37  41  8
38  40  8
40  41  8

$$$$
