9811635
  -OEChem-04222422432D

132137  0     1  0  0  0  0  0999 V2000
    9.5015    2.6084    0.0000 Cl  0  0  0  0  0  0  0  0  0  0  0  0
    6.0319    4.9745    0.0000 O   0  0  0  0  0  0  0  0  0  0  0  0
    2.7950    4.2182    0.0000 O   0  0  0  0  0  0  0  0  0  0  0  0
    7.9204    3.3157    0.0000 O   0  0  0  0  0  0  0  0  0  0  0  0
    7.7423    5.0386    0.0000 O   0  0  0  0  0  0  0  0  0  0  0  0
    5.4996    6.6227    0.0000 O   0  0  0  0  0  0  0  0  0  0  0  0
    0.0000    0.6658    0.0000 O   0  0  0  0  0  0  0  0  0  0  0  0
    7.1931    6.2596    0.0000 O   0  0  0  0  0  0  0  0  0  0  0  0
    6.0498   12.7734    0.0000 O   0  0  0  0  0  0  0  0  0  0  0  0
    4.3177   15.7734    0.0000 O   0  0  0  0  0  0  0  0  0  0  0  0
    4.3177   13.7734    0.0000 O   0  0  0  0  0  0  0  0  0  0  0  0
    4.3177   12.7734    0.0000 O   0  0  0  0  0  0  0  0  0  0  0  0
    4.3177   17.5055    0.0000 O   0  0  0  0  0  0  0  0  0  0  0  0
    6.0498   10.7734    0.0000 O   0  0  0  0  0  0  0  0  0  0  0  0
    2.5857   10.7734    0.0000 O   0  0  0  0  0  0  0  0  0  0  0  0
    2.3177   19.2375    0.0000 O   0  0  0  0  0  0  0  0  0  0  0  0
    1.7196   12.2734    0.0000 O   0  0  0  0  0  0  0  0  0  0  0  0
    7.7818   13.7734    0.0000 N   0  0  0  0  0  0  0  0  0  0  0  0
    6.5498   16.6395    0.0000 N   0  0  0  0  0  0  0  0  0  0  0  0
    2.3177   15.7734    0.0000 N   0  0  0  0  0  0  0  0  0  0  0  0
    4.3177    9.7734    0.0000 N   0  0  0  0  0  0  0  0  0  0  0  0
    3.8177   20.1036    0.0000 N   0  0  0  0  0  0  0  0  0  0  0  0
    5.3931    3.7182    0.0000 C   0  0  1  0  0  0  0  0  0  0  0  0
    5.3931    2.7182    0.0000 C   0  0  2  0  0  0  0  0  0  0  0  0
    4.5271    2.2182    0.0000 C   0  0  1  0  0  0  0  0  0  0  0  0
    3.6610    2.7182    0.0000 C   0  0  2  0  0  0  0  0  0  0  0  0
    6.3393    4.0229    0.0000 C   0  0  1  0  0  0  0  0  0  0  0  0
    4.5271    4.2182    0.0000 C   0  0  0  0  0  0  0  0  0  0  0  0
    6.3393    2.4134    0.0000 C   0  0  0  0  0  0  0  0  0  0  0  0
    3.6610    3.7182    0.0000 C   0  0  2  0  0  0  0  0  0  0  0  0
    2.7510    2.2113    0.0000 C   0  0  1  0  0  0  0  0  0  0  0  0
    6.9229    3.2182    0.0000 C   0  0  0  0  0  0  0  0  0  0  0  0
    4.5431    1.1767    0.0000 C   0  0  0  0  0  0  0  0  0  0  0  0
    5.3931    4.7182    0.0000 C   0  0  0  0  0  0  0  0  0  0  0  0
    3.6451    0.6489    0.0000 C   0  0  0  0  0  0  0  0  0  0  0  0
    2.7430    1.1697    0.0000 C   0  0  0  0  0  0  0  0  0  0  0  0
    7.3340    4.1257    0.0000 C   0  0  0  0  0  0  0  0  0  0  0  0
    2.7587    3.2113    0.0000 C   0  0  0  0  0  0  0  0  0  0  0  0
    1.8242    2.7754    0.0000 C   0  0  0  0  0  0  0  0  0  0  0  0
    1.8076    0.6200    0.0000 C   0  0  0  0  0  0  0  0  0  0  0  0
    0.8763    2.2475    0.0000 C   0  0  0  0  0  0  0  0  0  0  0  0
    0.8679    1.1625    0.0000 C   0  0  0  0  0  0  0  0  0  0  0  0
    6.2415    5.9523    0.0000 C   0  0  0  0  0  0  0  0  0  0  0  0
    8.9151    3.4185    0.0000 C   0  0  0  0  0  0  0  0  0  0  0  0
    4.5480    6.3153    0.0000 C   0  0  0  0  0  0  0  0  0  0  0  0
    3.8060    6.9857    0.0000 C   0  0  0  0  0  0  0  0  0  0  0  0
    6.0498   13.7734    0.0000 C   0  0  2  0  0  0  0  0  0  0  0  0
    5.1838   15.2734    0.0000 C   0  0  1  0  0  0  0  0  0  0  0  0
    5.1838   14.2734    0.0000 C   0  0  2  0  0  0  0  0  0  0  0  0
    6.9158   14.2734    0.0000 C   0  0  1  0  0  0  0  0  0  0  0  0
    6.0498   15.7734    0.0000 C   0  0  2  0  0  0  0  0  0  0  0  0
    6.9158   15.2734    0.0000 C   0  0  0  0  0  0  0  0  0  0  0  0
    5.1838   12.2734    0.0000 C   0  0  1  0  0  0  0  0  0  0  0  0
    3.8177   16.6395    0.0000 C   0  0  1  0  0  0  0  0  0  0  0  0
    5.1838   11.2734    0.0000 C   0  0  1  0  0  0  0  0  0  0  0  0
    2.8177   16.6395    0.0000 C   0  0  1  0  0  0  0  0  0  0  0  0
    4.3177   10.7734    0.0000 C   0  0  2  0  0  0  0  0  0  0  0  0
    3.4517   11.2734    0.0000 C   0  0  1  0  0  0  0  0  0  0  0  0
    2.3177   17.5055    0.0000 C   0  0  0  0  0  0  0  0  0  0  0  0
    3.4517   12.2734    0.0000 C   0  0  1  0  0  0  0  0  0  0  0  0
    3.8177   18.3715    0.0000 C   0  0  1  0  0  0  0  0  0  0  0  0
    2.8177   18.3715    0.0000 C   0  0  1  0  0  0  0  0  0  0  0  0
    2.5857   12.7734    0.0000 C   0  0  0  0  0  0  0  0  0  0  0  0
    4.3177   19.2375    0.0000 C   0  0  0  0  0  0  0  0  0  0  0  0
    5.4830    1.8729    0.0000 H   0  0  0  0  0  0  0  0  0  0  0  0
    5.2664    1.7988    0.0000 H   0  0  0  0  0  0  0  0  0  0  0  0
    4.3972    3.1432    0.0000 H   0  0  0  0  0  0  0  0  0  0  0  0
    4.9256    4.6931    0.0000 H   0  0  0  0  0  0  0  0  0  0  0  0
    4.1285    4.6931    0.0000 H   0  0  0  0  0  0  0  0  0  0  0  0
    6.0883    1.8465    0.0000 H   0  0  0  0  0  0  0  0  0  0  0  0
    6.8767    2.1042    0.0000 H   0  0  0  0  0  0  0  0  0  0  0  0
    3.6610    4.3382    0.0000 H   0  0  0  0  0  0  0  0  0  0  0  0
    7.3838    2.8034    0.0000 H   0  0  0  0  0  0  0  0  0  0  0  0
    7.3838    3.6329    0.0000 H   0  0  0  0  0  0  0  0  0  0  0  0
    4.7612    0.5963    0.0000 H   0  0  0  0  0  0  0  0  0  0  0  0
    5.1523    1.2922    0.0000 H   0  0  0  0  0  0  0  0  0  0  0  0
    6.0131    4.7182    0.0000 H   0  0  0  0  0  0  0  0  0  0  0  0
    5.3931    5.3382    0.0000 H   0  0  0  0  0  0  0  0  0  0  0  0
    4.7731    4.7182    0.0000 H   0  0  0  0  0  0  0  0  0  0  0  0
    3.2478    0.1729    0.0000 H   0  0  0  0  0  0  0  0  0  0  0  0
    4.0460    0.1760    0.0000 H   0  0  0  0  0  0  0  0  0  0  0  0
    3.3787    3.2065    0.0000 H   0  0  0  0  0  0  0  0  0  0  0  0
    2.7635    3.8313    0.0000 H   0  0  0  0  0  0  0  0  0  0  0  0
    2.1388    3.2161    0.0000 H   0  0  0  0  0  0  0  0  0  0  0  0
    1.8361    3.3953    0.0000 H   0  0  0  0  0  0  0  0  0  0  0  0
    2.7950    4.8382    0.0000 H   0  0  0  0  0  0  0  0  0  0  0  0
    1.8100    0.0000    0.0000 H   0  0  0  0  0  0  0  0  0  0  0  0
    0.3430    2.5636    0.0000 H   0  0  0  0  0  0  0  0  0  0  0  0
    9.4728    3.6893    0.0000 H   0  0  0  0  0  0  0  0  0  0  0  0
    8.7452    4.0148    0.0000 H   0  0  0  0  0  0  0  0  0  0  0  0
    4.0587    5.9344    0.0000 H   0  0  0  0  0  0  0  0  0  0  0  0
    4.8381    5.7674    0.0000 H   0  0  0  0  0  0  0  0  0  0  0  0
    4.2216    7.4458    0.0000 H   0  0  0  0  0  0  0  0  0  0  0  0
    3.3459    7.4014    0.0000 H   0  0  0  0  0  0  0  0  0  0  0  0
    3.3903    6.5257    0.0000 H   0  0  0  0  0  0  0  0  0  0  0  0
    6.5867   13.4634    0.0000 H   0  0  0  0  0  0  0  0  0  0  0  0
    5.1838   15.8934    0.0000 H   0  0  0  0  0  0  0  0  0  0  0  0
    4.6468   14.5834    0.0000 H   0  0  0  0  0  0  0  0  0  0  0  0
    7.4527   14.5834    0.0000 H   0  0  0  0  0  0  0  0  0  0  0  0
    5.6114   16.2118    0.0000 H   0  0  0  0  0  0  0  0  0  0  0  0
    7.5264   15.1658    0.0000 H   0  0  0  0  0  0  0  0  0  0  0  0
    7.1278   15.8560    0.0000 H   0  0  0  0  0  0  0  0  0  0  0  0
    5.7207   11.9634    0.0000 H   0  0  0  0  0  0  0  0  0  0  0  0
    3.5077   16.1025    0.0000 H   0  0  0  0  0  0  0  0  0  0  0  0
    5.1838   10.6534    0.0000 H   0  0  0  0  0  0  0  0  0  0  0  0
    2.1977   16.6395    0.0000 H   0  0  0  0  0  0  0  0  0  0  0  0
    3.7808   10.4634    0.0000 H   0  0  0  0  0  0  0  0  0  0  0  0
    8.3188   14.0834    0.0000 H   0  0  0  0  0  0  0  0  0  0  0  0
    7.7818   13.1534    0.0000 H   0  0  0  0  0  0  0  0  0  0  0  0
    7.1698   16.6395    0.0000 H   0  0  0  0  0  0  0  0  0  0  0  0
    6.2398   17.1764    0.0000 H   0  0  0  0  0  0  0  0  0  0  0  0
    3.4517   10.6534    0.0000 H   0  0  0  0  0  0  0  0  0  0  0  0
    1.8428   17.9040    0.0000 H   0  0  0  0  0  0  0  0  0  0  0  0
    1.8428   17.1070    0.0000 H   0  0  0  0  0  0  0  0  0  0  0  0
    3.4517   12.8934    0.0000 H   0  0  0  0  0  0  0  0  0  0  0  0
    3.7808   14.0834    0.0000 H   0  0  0  0  0  0  0  0  0  0  0  0
    4.4377   18.3715    0.0000 H   0  0  0  0  0  0  0  0  0  0  0  0
    2.1977   18.3715    0.0000 H   0  0  0  0  0  0  0  0  0  0  0  0
    2.9842   13.2484    0.0000 H   0  0  0  0  0  0  0  0  0  0  0  0
    2.1872   13.2484    0.0000 H   0  0  0  0  0  0  0  0  0  0  0  0
    4.7927   18.8390    0.0000 H   0  0  0  0  0  0  0  0  0  0  0  0
    4.7927   19.6361    0.0000 H   0  0  0  0  0  0  0  0  0  0  0  0
    1.6977   15.7734    0.0000 H   0  0  0  0  0  0  0  0  0  0  0  0
    2.6277   15.2365    0.0000 H   0  0  0  0  0  0  0  0  0  0  0  0
    3.7808    9.4634    0.0000 H   0  0  0  0  0  0  0  0  0  0  0  0
    4.8547    9.4634    0.0000 H   0  0  0  0  0  0  0  0  0  0  0  0
    6.5867   11.0834    0.0000 H   0  0  0  0  0  0  0  0  0  0  0  0
    2.5857   10.1534    0.0000 H   0  0  0  0  0  0  0  0  0  0  0  0
    1.6977   19.2375    0.0000 H   0  0  0  0  0  0  0  0  0  0  0  0
    4.1277   20.6405    0.0000 H   0  0  0  0  0  0  0  0  0  0  0  0
    3.1977   20.1036    0.0000 H   0  0  0  0  0  0  0  0  0  0  0  0
    1.1827   12.5834    0.0000 H   0  0  0  0  0  0  0  0  0  0  0  0
  1 44  1  0  0  0  0
 27  2  1  6  0  0  0
  2 43  1  0  0  0  0
 30  3  1  1  0  0  0
  3 86  1  0  0  0  0
  4 37  1  0  0  0  0
  4 44  1  0  0  0  0
  5 37  2  0  0  0  0
  6 43  1  0  0  0  0
  6 45  1  0  0  0  0
  7 42  2  0  0  0  0
  8 43  2  0  0  0  0
 47  9  1  6  0  0  0
 53  9  1  6  0  0  0
 48 10  1  6  0  0  0
 54 10  1  6  0  0  0
 49 11  1  1  0  0  0
 11116  1  0  0  0  0
 12 53  1  0  0  0  0
 12 60  1  0  0  0  0
 13 54  1  0  0  0  0
 13 61  1  0  0  0  0
 55 14  1  6  0  0  0
 14127  1  0  0  0  0
 58 15  1  6  0  0  0
 15128  1  0  0  0  0
 62 16  1  6  0  0  0
 16129  1  0  0  0  0
 17 63  1  0  0  0  0
 17132  1  0  0  0  0
 50 18  1  1  0  0  0
 18108  1  0  0  0  0
 18109  1  0  0  0  0
 51 19  1  1  0  0  0
 19110  1  0  0  0  0
 19111  1  0  0  0  0
 56 20  1  6  0  0  0
 20123  1  0  0  0  0
 20124  1  0  0  0  0
 57 21  1  1  0  0  0
 21125  1  0  0  0  0
 21126  1  0  0  0  0
 22 64  1  0  0  0  0
 22130  1  0  0  0  0
 22131  1  0  0  0  0
 23 24  1  0  0  0  0
 23 27  1  0  0  0  0
 23 28  1  0  0  0  0
 23 34  1  1  0  0  0
 24 25  1  0  0  0  0
 24 29  1  0  0  0  0
 24 65  1  6  0  0  0
 25 26  1  0  0  0  0
 25 33  1  0  0  0  0
 25 66  1  1  0  0  0
 26 30  1  0  0  0  0
 26 31  1  0  0  0  0
 26 67  1  6  0  0  0
 27 32  1  0  0  0  0
 27 37  1  0  0  0  0
 28 30  1  0  0  0  0
 28 68  1  0  0  0  0
 28 69  1  0  0  0  0
 29 32  1  0  0  0  0
 29 70  1  0  0  0  0
 29 71  1  0  0  0  0
 30 72  1  0  0  0  0
 31 36  1  0  0  0  0
 31 38  1  1  0  0  0
 31 39  1  0  0  0  0
 32 73  1  0  0  0  0
 32 74  1  0  0  0  0
 33 35  1  0  0  0  0
 33 75  1  0  0  0  0
 33 76  1  0  0  0  0
 34 77  1  0  0  0  0
 34 78  1  0  0  0  0
 34 79  1  0  0  0  0
 35 36  1  0  0  0  0
 35 80  1  0  0  0  0
 35 81  1  0  0  0  0
 36 40  2  0  0  0  0
 38 82  1  0  0  0  0
 38 83  1  0  0  0  0
 38 84  1  0  0  0  0
 39 41  2  0  0  0  0
 39 85  1  0  0  0  0
 40 42  1  0  0  0  0
 40 87  1  0  0  0  0
 41 42  1  0  0  0  0
 41 88  1  0  0  0  0
 44 89  1  0  0  0  0
 44 90  1  0  0  0  0
 45 46  1  0  0  0  0
 45 91  1  0  0  0  0
 45 92  1  0  0  0  0
 46 93  1  0  0  0  0
 46 94  1  0  0  0  0
 46 95  1  0  0  0  0
 47 49  1  0  0  0  0
 47 50  1  0  0  0  0
 47 96  1  0  0  0  0
 48 49  1  0  0  0  0
 48 51  1  0  0  0  0
 48 97  1  0  0  0  0
 49 98  1  0  0  0  0
 50 52  1  0  0  0  0
 50 99  1  0  0  0  0
 51 52  1  0  0  0  0
 51100  1  0  0  0  0
 52101  1  0  0  0  0
 52102  1  0  0  0  0
 53 55  1  0  0  0  0
 53103  1  0  0  0  0
 54 56  1  0  0  0  0
 54104  1  0  0  0  0
 55 57  1  0  0  0  0
 55105  1  0  0  0  0
 56 59  1  0  0  0  0
 56106  1  0  0  0  0
 57 58  1  0  0  0  0
 57107  1  0  0  0  0
 58 60  1  0  0  0  0
 58112  1  0  0  0  0
 59 62  1  0  0  0  0
 59113  1  0  0  0  0
 59114  1  0  0  0  0
 60 63  1  1  0  0  0
 60115  1  0  0  0  0
 61 62  1  0  0  0  0
 61 64  1  1  0  0  0
 61117  1  0  0  0  0
 62118  1  0  0  0  0
 63119  1  0  0  0  0
 63120  1  0  0  0  0
 64121  1  0  0  0  0
 64122  1  0  0  0  0
M  END
> <PUBCHEM_COMPOUND_CID>
9811635

> <PUBCHEM_COMPOUND_CANONICALIZED>
1

> <PUBCHEM_CACTVS_COMPLEXITY>
1490

> <PUBCHEM_CACTVS_HBOND_ACCEPTOR>
21

> <PUBCHEM_CACTVS_HBOND_DONOR>
11

> <PUBCHEM_CACTVS_ROTATABLE_BOND>
13

> <PUBCHEM_CACTVS_SUBSKEYS>
AAADcfB/vgAEAAAAAAAAAAAAAAAAAYAAAAA0aMECAAAAAGDAAAAAHgIQCAAAD3zxgEcCCABABgCIAqDSCAIAAAAgAAAICIFAAEgTEBIAwQQjQAAHkAAPAYP4/P3PgAAAAAAAAADAgAYUCDCgAYAADAAAAA==

> <PUBCHEM_IUPAC_OPENEYE_NAME>
(2S,3R,4S,5S,6R)-4-amino-2-[(1S,2S,3R,4S,6R)-4,6-diamino-3-[(2R,3R,5S,6R)-3-amino-6-(aminomethyl)-5-hydroxy-tetrahydropyran-2-yl]oxy-2-hydroxy-cyclohexoxy]-6-(hydroxymethyl)tetrahydropyran-3,5-diol;chloromethyl (8S,9S,10R,11S,13S,14S,17R)-17-ethoxycarbonyloxy-11-hydroxy-10,13-dimethyl-3-oxo-7,8,9,11,12,14,15,16-octahydro-6H-cyclopenta[a]phenanthrene-17-carboxylate

> <PUBCHEM_IUPAC_CAS_NAME>
(2S,3R,4S,5S,6R)-4-amino-2-[(1S,2S,3R,4S,6R)-4,6-diamino-3-[[(2R,3R,5S,6R)-3-amino-6-(aminomethyl)-5-hydroxy-2-oxanyl]oxy]-2-hydroxycyclohexyl]oxy-6-(hydroxymethyl)oxane-3,5-diol;(8S,9S,10R,11S,13S,14S,17R)-17-ethoxycarbonyloxy-11-hydroxy-10,13-dimethyl-3-oxo-7,8,9,11,12,14,15,16-octahydro-6H-cyclopenta[a]phenanthrene-17-carboxylic acid chloromethyl ester

> <PUBCHEM_IUPAC_NAME_MARKUP>
(2<I>S</I>,3<I>R</I>,4<I>S</I>,5<I>S</I>,6<I>R</I>)-4-amino-2-[(1<I>S</I>,2<I>S</I>,3<I>R</I>,4<I>S</I>,6<I>R</I>)-4,6-diamino-3-[(2<I>R</I>,3<I>R</I>,5<I>S</I>,6<I>R</I>)-3-amino-6-(aminomethyl)-5-hydroxyoxan-2-yl]oxy-2-hydroxycyclohexyl]oxy-6-(hydroxymethyl)oxane-3,5-diol;chloromethyl (8<I>S</I>,9<I>S</I>,10<I>R</I>,11<I>S</I>,13<I>S</I>,14<I>S</I>,17<I>R</I>)-17-ethoxycarbonyloxy-11-hydroxy-10,13-dimethyl-3-oxo-7,8,9,11,12,14,15,16-octahydro-6<I>H</I>-cyclopenta[a]phenanthrene-17-carboxylate

> <PUBCHEM_IUPAC_NAME>
(2S,3R,4S,5S,6R)-4-amino-2-[(1S,2S,3R,4S,6R)-4,6-diamino-3-[(2R,3R,5S,6R)-3-amino-6-(aminomethyl)-5-hydroxyoxan-2-yl]oxy-2-hydroxycyclohexyl]oxy-6-(hydroxymethyl)oxane-3,5-diol;chloromethyl (8S,9S,10R,11S,13S,14S,17R)-17-ethoxycarbonyloxy-11-hydroxy-10,13-dimethyl-3-oxo-7,8,9,11,12,14,15,16-octahydro-6H-cyclopenta[a]phenanthrene-17-carboxylate

> <PUBCHEM_IUPAC_SYSTEMATIC_NAME>
(2S,3R,4S,5S,6R)-2-[(1S,2S,3R,4S,6R)-3-[(2R,3R,5S,6R)-6-(aminomethyl)-3-azanyl-5-oxidanyl-oxan-2-yl]oxy-4,6-bis(azanyl)-2-oxidanyl-cyclohexyl]oxy-4-azanyl-6-(hydroxymethyl)oxane-3,5-diol;chloromethyl (8S,9S,10R,11S,13S,14S,17R)-17-ethoxycarbonyloxy-10,13-dimethyl-11-oxidanyl-3-oxidanylidene-7,8,9,11,12,14,15,16-octahydro-6H-cyclopenta[a]phenanthrene-17-carboxylate

> <PUBCHEM_IUPAC_TRADITIONAL_NAME>
(2S,3R,4S,5S,6R)-4-amino-2-[(1S,2S,3R,4S,6R)-4,6-diamino-3-[(2R,3R,5S,6R)-3-amino-6-(aminomethyl)-5-hydroxy-tetrahydropyran-2-yl]oxy-2-hydroxy-cyclohexoxy]-6-methylol-tetrahydropyran-3,5-diol;(8S,9S,10R,11S,13S,14S,17R)-17-carbethoxyoxy-11-hydroxy-3-keto-10,13-dimethyl-7,8,9,11,12,14,15,16-octahydro-6H-cyclopenta[a]phenanthrene-17-carboxylic acid chloromethyl ester

> <PUBCHEM_IUPAC_INCHI>
InChI=1S/C24H31ClO7.C18H37N5O9/c1-4-30-21(29)32-24(20(28)31-13-25)10-8-17-16-6-5-14-11-15(26)7-9-22(14,2)19(16)18(27)12-23(17,24)3;19-3-9-8(25)2-7(22)17(29-9)31-15-5(20)1-6(21)16(14(15)28)32-18-13(27)11(23)12(26)10(4-24)30-18/h7,9,11,16-19,27H,4-6,8,10,12-13H2,1-3H3;5-18,24-28H,1-4,19-23H2/t16-,17-,18-,19+,22-,23-,24-;5-,6+,7+,8-,9+,10+,11-,12+,13+,14-,15+,16-,17+,18+/m00/s1

> <PUBCHEM_IUPAC_INCHIKEY>
JOTNXPXOZZACQR-MDJKOFFZSA-N

> <PUBCHEM_EXACT_MASS>
933.4349588

> <PUBCHEM_MOLECULAR_FORMULA>
C42H68ClN5O16

> <PUBCHEM_MOLECULAR_WEIGHT>
934.5

> <PUBCHEM_OPENEYE_CAN_SMILES>
CCOC(=O)OC1(CCC2C1(CC(C3C2CCC4=CC(=O)C=CC34C)O)C)C(=O)OCCl.C1C(C(C(C(C1N)OC2C(C(C(C(O2)CO)O)N)O)O)OC3C(CC(C(O3)CN)O)N)N

> <PUBCHEM_OPENEYE_ISO_SMILES>
CCOC(=O)O[C@@]1(CC[C@@H]2[C@@]1(C[C@@H]([C@H]3[C@H]2CCC4=CC(=O)C=C[C@]34C)O)C)C(=O)OCCl.C1[C@@H]([C@H]([C@@H]([C@H]([C@@H]1N)O[C@@H]2[C@@H]([C@H]([C@@H]([C@H](O2)CO)O)N)O)O)O[C@@H]3[C@@H](C[C@@H]([C@H](O3)CN)O)N)N

> <PUBCHEM_CACTVS_TPSA>
367

> <PUBCHEM_MONOISOTOPIC_WEIGHT>
933.4349588

> <PUBCHEM_TOTAL_CHARGE>
0

> <PUBCHEM_HEAVY_ATOM_COUNT>
64

> <PUBCHEM_ATOM_DEF_STEREO_COUNT>
21

> <PUBCHEM_ATOM_UDEF_STEREO_COUNT>
0

> <PUBCHEM_BOND_DEF_STEREO_COUNT>
0

> <PUBCHEM_BOND_UDEF_STEREO_COUNT>
0

> <PUBCHEM_ISOTOPIC_ATOM_COUNT>
0

> <PUBCHEM_COMPONENT_COUNT>
2

> <PUBCHEM_CACTVS_TAUTO_COUNT>
3

> <PUBCHEM_COORDINATE_TYPE>
1
5
255

> <PUBCHEM_BONDANNOTATIONS>
48  10  6
54  10  6
49  11  5
55  14  6
58  15  6
62  16  6
50  18  5
51  19  5
27  2  6
56  20  6
57  21  5
23  34  5
24  65  6
25  66  5
26  67  6
30  3  5
31  38  5
60  63  5
61  64  5
47  9  6
53  9  6

$$$$
